<routes>
        <vType id="typeWE" accel="0.8" decel="4.5" sigma="0.5" length="5" minGap="2.5" maxSpeed="16.67" guiShape="passenger"/>
        <vType id="typeNS" accel="0.8" decel="4.5" sigma="0.5" length="7" minGap="3" maxSpeed="25" guiShape="bus"/>

        <route id="straight" edges="A12 A23 A34 A45 A56 A67 A79" />
        <route id="right" edges="A12 m9o" />
    <vehicle id="straight_0" type="typeWE" route="straight" depart="0" />
    <vehicle id="straight_1" type="typeWE" route="straight" depart="1" />
    <vehicle id="straight_2" type="typeWE" route="straight" depart="2" />
    <vehicle id="straight_3" type="typeWE" route="straight" depart="3" />
    <vehicle id="straight_4" type="typeWE" route="straight" depart="4" />
    <vehicle id="straight_5" type="typeWE" route="straight" depart="5" />
    <vehicle id="straight_6" type="typeWE" route="straight" depart="6" />
    <vehicle id="straight_7" type="typeWE" route="straight" depart="7" />
    <vehicle id="straight_8" type="typeWE" route="straight" depart="8" />
    <vehicle id="straight_9" type="typeWE" route="straight" depart="9" />
    <vehicle id="straight_10" type="typeWE" route="straight" depart="10" />
    <vehicle id="straight_11" type="typeWE" route="straight" depart="11" />
    <vehicle id="straight_12" type="typeWE" route="straight" depart="12" />
    <vehicle id="straight_13" type="typeWE" route="straight" depart="13" />
    <vehicle id="straight_14" type="typeWE" route="straight" depart="14" />
    <vehicle id="straight_15" type="typeWE" route="straight" depart="15" />
    <vehicle id="straight_16" type="typeWE" route="straight" depart="16" />
    <vehicle id="straight_17" type="typeWE" route="straight" depart="17" />
    <vehicle id="straight_18" type="typeWE" route="straight" depart="18" />
    <vehicle id="straight_19" type="typeWE" route="straight" depart="19" />
    <vehicle id="straight_20" type="typeWE" route="straight" depart="20" />
    <vehicle id="straight_21" type="typeWE" route="straight" depart="21" />
    <vehicle id="straight_22" type="typeWE" route="straight" depart="22" />
    <vehicle id="straight_23" type="typeWE" route="straight" depart="23" />
    <vehicle id="straight_24" type="typeWE" route="straight" depart="24" />
    <vehicle id="straight_25" type="typeWE" route="straight" depart="25" />
    <vehicle id="straight_26" type="typeWE" route="straight" depart="26" />
    <vehicle id="straight_27" type="typeWE" route="straight" depart="27" />
    <vehicle id="straight_28" type="typeWE" route="straight" depart="28" />
    <vehicle id="straight_29" type="typeWE" route="straight" depart="29" />
    <vehicle id="straight_30" type="typeWE" route="straight" depart="30" />
    <vehicle id="straight_31" type="typeWE" route="straight" depart="31" />
    <vehicle id="straight_32" type="typeWE" route="straight" depart="32" />
    <vehicle id="straight_33" type="typeWE" route="straight" depart="33" />
    <vehicle id="straight_34" type="typeWE" route="straight" depart="34" />
    <vehicle id="straight_35" type="typeWE" route="straight" depart="35" />
    <vehicle id="straight_36" type="typeWE" route="straight" depart="36" />
    <vehicle id="straight_37" type="typeWE" route="straight" depart="37" />
    <vehicle id="straight_38" type="typeWE" route="straight" depart="38" />
    <vehicle id="straight_39" type="typeWE" route="straight" depart="39" />
    <vehicle id="straight_40" type="typeWE" route="straight" depart="40" />
    <vehicle id="straight_41" type="typeWE" route="straight" depart="41" />
    <vehicle id="straight_42" type="typeWE" route="straight" depart="42" />
    <vehicle id="straight_43" type="typeWE" route="straight" depart="43" />
    <vehicle id="straight_44" type="typeWE" route="straight" depart="44" />
    <vehicle id="straight_45" type="typeWE" route="straight" depart="45" />
    <vehicle id="straight_46" type="typeWE" route="straight" depart="46" />
    <vehicle id="straight_47" type="typeWE" route="straight" depart="47" />
    <vehicle id="straight_48" type="typeWE" route="straight" depart="48" />
    <vehicle id="straight_49" type="typeWE" route="straight" depart="49" />
    <vehicle id="straight_50" type="typeWE" route="straight" depart="50" />
    <vehicle id="straight_51" type="typeWE" route="straight" depart="51" />
    <vehicle id="straight_52" type="typeWE" route="straight" depart="52" />
    <vehicle id="straight_53" type="typeWE" route="straight" depart="53" />
    <vehicle id="straight_54" type="typeWE" route="straight" depart="54" />
    <vehicle id="straight_55" type="typeWE" route="straight" depart="55" />
    <vehicle id="straight_56" type="typeWE" route="straight" depart="56" />
    <vehicle id="straight_57" type="typeWE" route="straight" depart="57" />
    <vehicle id="straight_58" type="typeWE" route="straight" depart="58" />
    <vehicle id="straight_59" type="typeWE" route="straight" depart="59" />
    <vehicle id="straight_60" type="typeWE" route="straight" depart="60" />
    <vehicle id="straight_61" type="typeWE" route="straight" depart="61" />
    <vehicle id="straight_62" type="typeWE" route="straight" depart="62" />
    <vehicle id="straight_63" type="typeWE" route="straight" depart="63" />
    <vehicle id="straight_64" type="typeWE" route="straight" depart="64" />
    <vehicle id="straight_65" type="typeWE" route="straight" depart="65" />
    <vehicle id="straight_66" type="typeWE" route="straight" depart="66" />
    <vehicle id="straight_67" type="typeWE" route="straight" depart="67" />
    <vehicle id="straight_68" type="typeWE" route="straight" depart="68" />
    <vehicle id="straight_69" type="typeWE" route="straight" depart="69" />
    <vehicle id="straight_70" type="typeWE" route="straight" depart="70" />
    <vehicle id="straight_71" type="typeWE" route="straight" depart="71" />
    <vehicle id="straight_72" type="typeWE" route="straight" depart="72" />
    <vehicle id="straight_73" type="typeWE" route="straight" depart="73" />
    <vehicle id="straight_74" type="typeWE" route="straight" depart="74" />
    <vehicle id="straight_75" type="typeWE" route="straight" depart="75" />
    <vehicle id="straight_76" type="typeWE" route="straight" depart="76" />
    <vehicle id="straight_77" type="typeWE" route="straight" depart="77" />
    <vehicle id="straight_78" type="typeWE" route="straight" depart="78" />
    <vehicle id="straight_79" type="typeWE" route="straight" depart="79" />
    <vehicle id="straight_80" type="typeWE" route="straight" depart="80" />
    <vehicle id="straight_81" type="typeWE" route="straight" depart="81" />
    <vehicle id="straight_82" type="typeWE" route="straight" depart="82" />
    <vehicle id="straight_83" type="typeWE" route="straight" depart="83" />
    <vehicle id="straight_84" type="typeWE" route="straight" depart="84" />
    <vehicle id="straight_85" type="typeWE" route="straight" depart="85" />
    <vehicle id="straight_86" type="typeWE" route="straight" depart="86" />
    <vehicle id="straight_87" type="typeWE" route="straight" depart="87" />
    <vehicle id="straight_88" type="typeWE" route="straight" depart="88" />
    <vehicle id="straight_89" type="typeWE" route="straight" depart="89" />
    <vehicle id="straight_90" type="typeWE" route="straight" depart="90" />
    <vehicle id="straight_91" type="typeWE" route="straight" depart="91" />
    <vehicle id="straight_92" type="typeWE" route="straight" depart="92" />
    <vehicle id="straight_93" type="typeWE" route="straight" depart="93" />
    <vehicle id="straight_94" type="typeWE" route="straight" depart="94" />
    <vehicle id="straight_95" type="typeWE" route="straight" depart="95" />
    <vehicle id="straight_96" type="typeWE" route="straight" depart="96" />
    <vehicle id="straight_97" type="typeWE" route="straight" depart="97" />
    <vehicle id="straight_98" type="typeWE" route="straight" depart="98" />
    <vehicle id="straight_99" type="typeWE" route="straight" depart="99" />
    <vehicle id="straight_100" type="typeWE" route="straight" depart="100" />
    <vehicle id="straight_101" type="typeWE" route="straight" depart="101" />
    <vehicle id="straight_102" type="typeWE" route="straight" depart="102" />
    <vehicle id="straight_103" type="typeWE" route="straight" depart="103" />
    <vehicle id="straight_104" type="typeWE" route="straight" depart="104" />
    <vehicle id="straight_105" type="typeWE" route="straight" depart="105" />
    <vehicle id="straight_106" type="typeWE" route="straight" depart="106" />
    <vehicle id="straight_107" type="typeWE" route="straight" depart="107" />
    <vehicle id="straight_108" type="typeWE" route="straight" depart="108" />
    <vehicle id="straight_109" type="typeWE" route="straight" depart="109" />
    <vehicle id="straight_110" type="typeWE" route="straight" depart="110" />
    <vehicle id="straight_111" type="typeWE" route="straight" depart="111" />
    <vehicle id="straight_112" type="typeWE" route="straight" depart="112" />
    <vehicle id="straight_113" type="typeWE" route="straight" depart="113" />
    <vehicle id="straight_114" type="typeWE" route="straight" depart="114" />
    <vehicle id="straight_115" type="typeWE" route="straight" depart="115" />
    <vehicle id="straight_116" type="typeWE" route="straight" depart="116" />
    <vehicle id="straight_117" type="typeWE" route="straight" depart="117" />
    <vehicle id="straight_118" type="typeWE" route="straight" depart="118" />
    <vehicle id="straight_119" type="typeWE" route="straight" depart="119" />
    <vehicle id="straight_120" type="typeWE" route="straight" depart="120" />
    <vehicle id="straight_121" type="typeWE" route="straight" depart="121" />
    <vehicle id="straight_122" type="typeWE" route="straight" depart="122" />
    <vehicle id="straight_123" type="typeWE" route="straight" depart="123" />
    <vehicle id="straight_124" type="typeWE" route="straight" depart="124" />
    <vehicle id="straight_125" type="typeWE" route="straight" depart="125" />
    <vehicle id="straight_126" type="typeWE" route="straight" depart="126" />
    <vehicle id="straight_127" type="typeWE" route="straight" depart="127" />
    <vehicle id="straight_128" type="typeWE" route="straight" depart="128" />
    <vehicle id="straight_129" type="typeWE" route="straight" depart="129" />
    <vehicle id="straight_130" type="typeWE" route="straight" depart="130" />
    <vehicle id="straight_131" type="typeWE" route="straight" depart="131" />
    <vehicle id="straight_132" type="typeWE" route="straight" depart="132" />
    <vehicle id="straight_133" type="typeWE" route="straight" depart="133" />
    <vehicle id="straight_134" type="typeWE" route="straight" depart="134" />
    <vehicle id="straight_135" type="typeWE" route="straight" depart="135" />
    <vehicle id="straight_136" type="typeWE" route="straight" depart="136" />
    <vehicle id="straight_137" type="typeWE" route="straight" depart="137" />
    <vehicle id="straight_138" type="typeWE" route="straight" depart="138" />
    <vehicle id="straight_139" type="typeWE" route="straight" depart="139" />
    <vehicle id="straight_140" type="typeWE" route="straight" depart="140" />
    <vehicle id="straight_141" type="typeWE" route="straight" depart="141" />
    <vehicle id="straight_142" type="typeWE" route="straight" depart="142" />
    <vehicle id="straight_143" type="typeWE" route="straight" depart="143" />
    <vehicle id="straight_144" type="typeWE" route="straight" depart="144" />
    <vehicle id="straight_145" type="typeWE" route="straight" depart="145" />
    <vehicle id="straight_146" type="typeWE" route="straight" depart="146" />
    <vehicle id="straight_147" type="typeWE" route="straight" depart="147" />
    <vehicle id="straight_148" type="typeWE" route="straight" depart="148" />
    <vehicle id="straight_149" type="typeWE" route="straight" depart="149" />
    <vehicle id="straight_150" type="typeWE" route="straight" depart="150" />
    <vehicle id="straight_151" type="typeWE" route="straight" depart="151" />
    <vehicle id="straight_152" type="typeWE" route="straight" depart="152" />
    <vehicle id="straight_153" type="typeWE" route="straight" depart="153" />
    <vehicle id="straight_154" type="typeWE" route="straight" depart="154" />
    <vehicle id="straight_155" type="typeWE" route="straight" depart="155" />
    <vehicle id="straight_156" type="typeWE" route="straight" depart="156" />
    <vehicle id="straight_157" type="typeWE" route="straight" depart="157" />
    <vehicle id="straight_158" type="typeWE" route="straight" depart="158" />
    <vehicle id="straight_159" type="typeWE" route="straight" depart="159" />
    <vehicle id="straight_160" type="typeWE" route="straight" depart="160" />
    <vehicle id="straight_161" type="typeWE" route="straight" depart="161" />
    <vehicle id="straight_162" type="typeWE" route="straight" depart="162" />
    <vehicle id="straight_163" type="typeWE" route="straight" depart="163" />
    <vehicle id="straight_164" type="typeWE" route="straight" depart="164" />
    <vehicle id="straight_165" type="typeWE" route="straight" depart="165" />
    <vehicle id="straight_166" type="typeWE" route="straight" depart="166" />
    <vehicle id="straight_167" type="typeWE" route="straight" depart="167" />
    <vehicle id="straight_168" type="typeWE" route="straight" depart="168" />
    <vehicle id="straight_169" type="typeWE" route="straight" depart="169" />
    <vehicle id="straight_170" type="typeWE" route="straight" depart="170" />
    <vehicle id="straight_171" type="typeWE" route="straight" depart="171" />
    <vehicle id="straight_172" type="typeWE" route="straight" depart="172" />
    <vehicle id="straight_173" type="typeWE" route="straight" depart="173" />
    <vehicle id="straight_174" type="typeWE" route="straight" depart="174" />
    <vehicle id="straight_175" type="typeWE" route="straight" depart="175" />
    <vehicle id="straight_176" type="typeWE" route="straight" depart="176" />
    <vehicle id="straight_177" type="typeWE" route="straight" depart="177" />
    <vehicle id="straight_178" type="typeWE" route="straight" depart="178" />
    <vehicle id="straight_179" type="typeWE" route="straight" depart="179" />
    <vehicle id="straight_180" type="typeWE" route="straight" depart="180" />
    <vehicle id="straight_181" type="typeWE" route="straight" depart="181" />
    <vehicle id="straight_182" type="typeWE" route="straight" depart="182" />
    <vehicle id="straight_183" type="typeWE" route="straight" depart="183" />
    <vehicle id="straight_184" type="typeWE" route="straight" depart="184" />
    <vehicle id="straight_185" type="typeWE" route="straight" depart="185" />
    <vehicle id="straight_186" type="typeWE" route="straight" depart="186" />
    <vehicle id="straight_187" type="typeWE" route="straight" depart="187" />
    <vehicle id="straight_188" type="typeWE" route="straight" depart="188" />
    <vehicle id="straight_189" type="typeWE" route="straight" depart="189" />
    <vehicle id="straight_190" type="typeWE" route="straight" depart="190" />
    <vehicle id="straight_191" type="typeWE" route="straight" depart="191" />
    <vehicle id="straight_192" type="typeWE" route="straight" depart="192" />
    <vehicle id="straight_193" type="typeWE" route="straight" depart="193" />
    <vehicle id="straight_194" type="typeWE" route="straight" depart="194" />
    <vehicle id="straight_195" type="typeWE" route="straight" depart="195" />
    <vehicle id="straight_196" type="typeWE" route="straight" depart="196" />
    <vehicle id="straight_197" type="typeWE" route="straight" depart="197" />
    <vehicle id="straight_198" type="typeWE" route="straight" depart="198" />
    <vehicle id="straight_199" type="typeWE" route="straight" depart="199" />
    <vehicle id="straight_200" type="typeWE" route="straight" depart="200" />
    <vehicle id="straight_201" type="typeWE" route="straight" depart="201" />
    <vehicle id="straight_202" type="typeWE" route="straight" depart="202" />
    <vehicle id="straight_203" type="typeWE" route="straight" depart="203" />
    <vehicle id="straight_204" type="typeWE" route="straight" depart="204" />
    <vehicle id="straight_205" type="typeWE" route="straight" depart="205" />
    <vehicle id="straight_206" type="typeWE" route="straight" depart="206" />
    <vehicle id="straight_207" type="typeWE" route="straight" depart="207" />
    <vehicle id="straight_208" type="typeWE" route="straight" depart="208" />
    <vehicle id="straight_209" type="typeWE" route="straight" depart="209" />
    <vehicle id="straight_210" type="typeWE" route="straight" depart="210" />
    <vehicle id="straight_211" type="typeWE" route="straight" depart="211" />
    <vehicle id="straight_212" type="typeWE" route="straight" depart="212" />
    <vehicle id="straight_213" type="typeWE" route="straight" depart="213" />
    <vehicle id="straight_214" type="typeWE" route="straight" depart="214" />
    <vehicle id="straight_215" type="typeWE" route="straight" depart="215" />
    <vehicle id="straight_216" type="typeWE" route="straight" depart="216" />
    <vehicle id="straight_217" type="typeWE" route="straight" depart="217" />
    <vehicle id="straight_218" type="typeWE" route="straight" depart="218" />
    <vehicle id="straight_219" type="typeWE" route="straight" depart="219" />
    <vehicle id="straight_220" type="typeWE" route="straight" depart="220" />
    <vehicle id="straight_221" type="typeWE" route="straight" depart="221" />
    <vehicle id="straight_222" type="typeWE" route="straight" depart="222" />
    <vehicle id="straight_223" type="typeWE" route="straight" depart="223" />
    <vehicle id="straight_224" type="typeWE" route="straight" depart="224" />
    <vehicle id="straight_225" type="typeWE" route="straight" depart="225" />
    <vehicle id="straight_226" type="typeWE" route="straight" depart="226" />
    <vehicle id="straight_227" type="typeWE" route="straight" depart="227" />
    <vehicle id="straight_228" type="typeWE" route="straight" depart="228" />
    <vehicle id="straight_229" type="typeWE" route="straight" depart="229" />
    <vehicle id="straight_230" type="typeWE" route="straight" depart="230" />
    <vehicle id="straight_231" type="typeWE" route="straight" depart="231" />
    <vehicle id="straight_232" type="typeWE" route="straight" depart="232" />
    <vehicle id="straight_233" type="typeWE" route="straight" depart="233" />
    <vehicle id="straight_234" type="typeWE" route="straight" depart="234" />
    <vehicle id="straight_235" type="typeWE" route="straight" depart="235" />
    <vehicle id="straight_236" type="typeWE" route="straight" depart="236" />
    <vehicle id="straight_237" type="typeWE" route="straight" depart="237" />
    <vehicle id="straight_238" type="typeWE" route="straight" depart="238" />
    <vehicle id="straight_239" type="typeWE" route="straight" depart="239" />
    <vehicle id="straight_240" type="typeWE" route="straight" depart="240" />
    <vehicle id="straight_241" type="typeWE" route="straight" depart="241" />
    <vehicle id="straight_242" type="typeWE" route="straight" depart="242" />
    <vehicle id="straight_243" type="typeWE" route="straight" depart="243" />
    <vehicle id="straight_244" type="typeWE" route="straight" depart="244" />
    <vehicle id="straight_245" type="typeWE" route="straight" depart="245" />
    <vehicle id="straight_246" type="typeWE" route="straight" depart="246" />
    <vehicle id="straight_247" type="typeWE" route="straight" depart="247" />
    <vehicle id="straight_248" type="typeWE" route="straight" depart="248" />
    <vehicle id="straight_249" type="typeWE" route="straight" depart="249" />
    <vehicle id="straight_250" type="typeWE" route="straight" depart="250" />
    <vehicle id="straight_251" type="typeWE" route="straight" depart="251" />
    <vehicle id="straight_252" type="typeWE" route="straight" depart="252" />
    <vehicle id="straight_253" type="typeWE" route="straight" depart="253" />
    <vehicle id="straight_254" type="typeWE" route="straight" depart="254" />
    <vehicle id="straight_255" type="typeWE" route="straight" depart="255" />
    <vehicle id="straight_256" type="typeWE" route="straight" depart="256" />
    <vehicle id="straight_257" type="typeWE" route="straight" depart="257" />
    <vehicle id="straight_258" type="typeWE" route="straight" depart="258" />
    <vehicle id="straight_259" type="typeWE" route="straight" depart="259" />
    <vehicle id="straight_260" type="typeWE" route="straight" depart="260" />
    <vehicle id="straight_261" type="typeWE" route="straight" depart="261" />
    <vehicle id="straight_262" type="typeWE" route="straight" depart="262" />
    <vehicle id="straight_263" type="typeWE" route="straight" depart="263" />
    <vehicle id="straight_264" type="typeWE" route="straight" depart="264" />
    <vehicle id="straight_265" type="typeWE" route="straight" depart="265" />
    <vehicle id="straight_266" type="typeWE" route="straight" depart="266" />
    <vehicle id="straight_267" type="typeWE" route="straight" depart="267" />
    <vehicle id="straight_268" type="typeWE" route="straight" depart="268" />
    <vehicle id="straight_269" type="typeWE" route="straight" depart="269" />
    <vehicle id="straight_270" type="typeWE" route="straight" depart="270" />
    <vehicle id="straight_271" type="typeWE" route="straight" depart="271" />
    <vehicle id="straight_272" type="typeWE" route="straight" depart="272" />
    <vehicle id="straight_273" type="typeWE" route="straight" depart="273" />
    <vehicle id="straight_274" type="typeWE" route="straight" depart="274" />
    <vehicle id="straight_275" type="typeWE" route="straight" depart="275" />
    <vehicle id="straight_276" type="typeWE" route="straight" depart="276" />
    <vehicle id="straight_277" type="typeWE" route="straight" depart="277" />
    <vehicle id="straight_278" type="typeWE" route="straight" depart="278" />
    <vehicle id="straight_279" type="typeWE" route="straight" depart="279" />
    <vehicle id="straight_280" type="typeWE" route="straight" depart="280" />
    <vehicle id="straight_281" type="typeWE" route="straight" depart="281" />
    <vehicle id="straight_282" type="typeWE" route="straight" depart="282" />
    <vehicle id="straight_283" type="typeWE" route="straight" depart="283" />
    <vehicle id="straight_284" type="typeWE" route="straight" depart="284" />
    <vehicle id="straight_285" type="typeWE" route="straight" depart="285" />
    <vehicle id="straight_286" type="typeWE" route="straight" depart="286" />
    <vehicle id="straight_287" type="typeWE" route="straight" depart="287" />
    <vehicle id="straight_288" type="typeWE" route="straight" depart="288" />
    <vehicle id="straight_289" type="typeWE" route="straight" depart="289" />
    <vehicle id="straight_290" type="typeWE" route="straight" depart="290" />
    <vehicle id="straight_291" type="typeWE" route="straight" depart="291" />
    <vehicle id="straight_292" type="typeWE" route="straight" depart="292" />
    <vehicle id="straight_293" type="typeWE" route="straight" depart="293" />
    <vehicle id="straight_294" type="typeWE" route="straight" depart="294" />
    <vehicle id="straight_295" type="typeWE" route="straight" depart="295" />
    <vehicle id="straight_296" type="typeWE" route="straight" depart="296" />
    <vehicle id="straight_297" type="typeWE" route="straight" depart="297" />
    <vehicle id="straight_298" type="typeWE" route="straight" depart="298" />
    <vehicle id="straight_299" type="typeWE" route="straight" depart="299" />
    <vehicle id="straight_300" type="typeWE" route="straight" depart="300" />
    <vehicle id="straight_301" type="typeWE" route="straight" depart="301" />
    <vehicle id="straight_302" type="typeWE" route="straight" depart="302" />
    <vehicle id="straight_303" type="typeWE" route="straight" depart="303" />
    <vehicle id="straight_304" type="typeWE" route="straight" depart="304" />
    <vehicle id="straight_305" type="typeWE" route="straight" depart="305" />
    <vehicle id="straight_306" type="typeWE" route="straight" depart="306" />
    <vehicle id="straight_307" type="typeWE" route="straight" depart="307" />
    <vehicle id="straight_308" type="typeWE" route="straight" depart="308" />
    <vehicle id="straight_309" type="typeWE" route="straight" depart="309" />
    <vehicle id="straight_310" type="typeWE" route="straight" depart="310" />
    <vehicle id="straight_311" type="typeWE" route="straight" depart="311" />
    <vehicle id="straight_312" type="typeWE" route="straight" depart="312" />
    <vehicle id="straight_313" type="typeWE" route="straight" depart="313" />
    <vehicle id="straight_314" type="typeWE" route="straight" depart="314" />
    <vehicle id="straight_315" type="typeWE" route="straight" depart="315" />
    <vehicle id="straight_316" type="typeWE" route="straight" depart="316" />
    <vehicle id="straight_317" type="typeWE" route="straight" depart="317" />
    <vehicle id="straight_318" type="typeWE" route="straight" depart="318" />
    <vehicle id="straight_319" type="typeWE" route="straight" depart="319" />
    <vehicle id="straight_320" type="typeWE" route="straight" depart="320" />
    <vehicle id="straight_321" type="typeWE" route="straight" depart="321" />
    <vehicle id="straight_322" type="typeWE" route="straight" depart="322" />
    <vehicle id="straight_323" type="typeWE" route="straight" depart="323" />
    <vehicle id="straight_324" type="typeWE" route="straight" depart="324" />
    <vehicle id="straight_325" type="typeWE" route="straight" depart="325" />
    <vehicle id="straight_326" type="typeWE" route="straight" depart="326" />
    <vehicle id="straight_327" type="typeWE" route="straight" depart="327" />
    <vehicle id="straight_328" type="typeWE" route="straight" depart="328" />
    <vehicle id="straight_329" type="typeWE" route="straight" depart="329" />
    <vehicle id="straight_330" type="typeWE" route="straight" depart="330" />
    <vehicle id="straight_331" type="typeWE" route="straight" depart="331" />
    <vehicle id="straight_332" type="typeWE" route="straight" depart="332" />
    <vehicle id="straight_333" type="typeWE" route="straight" depart="333" />
    <vehicle id="straight_334" type="typeWE" route="straight" depart="334" />
    <vehicle id="straight_335" type="typeWE" route="straight" depart="335" />
    <vehicle id="straight_336" type="typeWE" route="straight" depart="336" />
    <vehicle id="straight_337" type="typeWE" route="straight" depart="337" />
    <vehicle id="straight_338" type="typeWE" route="straight" depart="338" />
    <vehicle id="straight_339" type="typeWE" route="straight" depart="339" />
    <vehicle id="straight_340" type="typeWE" route="straight" depart="340" />
    <vehicle id="straight_341" type="typeWE" route="straight" depart="341" />
    <vehicle id="straight_342" type="typeWE" route="straight" depart="342" />
    <vehicle id="straight_343" type="typeWE" route="straight" depart="343" />
    <vehicle id="straight_344" type="typeWE" route="straight" depart="344" />
    <vehicle id="straight_345" type="typeWE" route="straight" depart="345" />
    <vehicle id="straight_346" type="typeWE" route="straight" depart="346" />
    <vehicle id="straight_347" type="typeWE" route="straight" depart="347" />
    <vehicle id="straight_348" type="typeWE" route="straight" depart="348" />
    <vehicle id="straight_349" type="typeWE" route="straight" depart="349" />
    <vehicle id="straight_350" type="typeWE" route="straight" depart="350" />
    <vehicle id="straight_351" type="typeWE" route="straight" depart="351" />
    <vehicle id="straight_352" type="typeWE" route="straight" depart="352" />
    <vehicle id="straight_353" type="typeWE" route="straight" depart="353" />
    <vehicle id="straight_354" type="typeWE" route="straight" depart="354" />
    <vehicle id="straight_355" type="typeWE" route="straight" depart="355" />
    <vehicle id="straight_356" type="typeWE" route="straight" depart="356" />
    <vehicle id="straight_357" type="typeWE" route="straight" depart="357" />
    <vehicle id="straight_358" type="typeWE" route="straight" depart="358" />
    <vehicle id="straight_359" type="typeWE" route="straight" depart="359" />
    <vehicle id="straight_360" type="typeWE" route="straight" depart="360" />
    <vehicle id="straight_361" type="typeWE" route="straight" depart="361" />
    <vehicle id="straight_362" type="typeWE" route="straight" depart="362" />
    <vehicle id="straight_363" type="typeWE" route="straight" depart="363" />
    <vehicle id="straight_364" type="typeWE" route="straight" depart="364" />
    <vehicle id="straight_365" type="typeWE" route="straight" depart="365" />
    <vehicle id="straight_366" type="typeWE" route="straight" depart="366" />
    <vehicle id="straight_367" type="typeWE" route="straight" depart="367" />
    <vehicle id="straight_368" type="typeWE" route="straight" depart="368" />
    <vehicle id="straight_369" type="typeWE" route="straight" depart="369" />
    <vehicle id="straight_370" type="typeWE" route="straight" depart="370" />
    <vehicle id="straight_371" type="typeWE" route="straight" depart="371" />
    <vehicle id="straight_372" type="typeWE" route="straight" depart="372" />
    <vehicle id="straight_373" type="typeWE" route="straight" depart="373" />
    <vehicle id="straight_374" type="typeWE" route="straight" depart="374" />
    <vehicle id="straight_375" type="typeWE" route="straight" depart="375" />
    <vehicle id="straight_376" type="typeWE" route="straight" depart="376" />
    <vehicle id="straight_377" type="typeWE" route="straight" depart="377" />
    <vehicle id="straight_378" type="typeWE" route="straight" depart="378" />
    <vehicle id="straight_379" type="typeWE" route="straight" depart="379" />
    <vehicle id="straight_380" type="typeWE" route="straight" depart="380" />
    <vehicle id="straight_381" type="typeWE" route="straight" depart="381" />