<?xml version="1.0" encoding="UTF-8"?>

<!-- generated on Mon Feb 26 22:19:41 2018 by Netedit Version 0.30.0
<?xml version="1.0" encoding="UTF-8"?>

<configuration xmlns:xsi="http://www.w3.org/2001/XMLSchema-instance" xsi:noNamespaceSchemaLocation="http://sumo.dlr.de/xsd/netconvertConfiguration.xsd">

    <input>
        <sumo-net-file value="quickstart.net.xml"/>
    </input>

    <output>
        <output-file value="quickstart.net.xml"/>
    </output>

    <processing>
        <no-turnarounds value="true"/>
        <offset.disable-normalization value="true"/>
        <lefthand value="false"/>
        <junctions.corner-detail value="0"/>
        <rectangular-lane-cut value="false"/>
    </processing>

</configuration>
-->

<net version="0.27" xmlns:xsi="http://www.w3.org/2001/XMLSchema-instance" xsi:noNamespaceSchemaLocation="http://sumo.dlr.de/xsd/net_file.xsd">

    <location netOffset="1000.00,200.00" convBoundary="0.00,0.00,2000.00,400.00" origBoundary="-1000.00,-200.00,1000.00,200.00" projParameter="!"/>

    <type id="a" priority="3" numLanes="3" speed="17.88"/>
    <type id="b" priority="1" numLanes="2" speed="11.18"/>

    <edge id=":0_0" function="internal">
        <lane id=":0_0_0" index="0" speed="14.53" length="5.00" shape="395.05,211.35 394.86,209.99 394.28,209.03 393.31,208.44 391.95,208.25"/>
    </edge>
    <edge id=":0_1" function="internal">
        <lane id=":0_1_0" index="0" speed="11.18" length="22.70" shape="398.35,211.35 398.35,188.65"/>
    </edge>
    <edge id=":0_2" function="internal">
        <lane id=":0_2_0" index="0" speed="14.53" length="8.40" shape="398.35,211.35 398.96,205.66 400.05,203.22"/>
    </edge>
    <edge id=":0_14" function="internal">
        <lane id=":0_14_0" index="0" speed="14.53" length="9.98" shape="400.05,203.22 400.78,201.60 403.81,199.16 408.05,198.35"/>
    </edge>
    <edge id=":0_3" function="internal">
        <lane id=":0_3_0" index="0" speed="14.53" length="5.00" shape="408.05,208.25 406.69,208.44 405.73,209.03 405.14,209.99 404.95,211.35"/>
    </edge>
    <edge id=":0_4" function="internal">
        <lane id=":0_4_0" index="0" speed="17.88" length="16.10" shape="408.05,204.95 391.95,204.95"/>
        <lane id=":0_4_1" index="1" speed="17.88" length="16.10" shape="408.05,201.65 391.95,201.65"/>
    </edge>
    <edge id=":0_6" function="internal">
        <lane id=":0_6_0" index="0" speed="14.53" length="5.74" shape="408.05,201.65 403.81,200.84 402.70,199.95"/>
    </edge>
    <edge id=":0_15" function="internal">
        <lane id=":0_15_0" index="0" speed="14.53" length="12.64" shape="402.70,199.95 400.77,198.40 398.96,194.34 398.35,188.65"/>
    </edge>
    <edge id=":0_7" function="internal">
        <lane id=":0_7_0" index="0" speed="14.53" length="5.00" shape="404.95,188.65 405.14,190.01 405.72,190.97 406.69,191.56 408.05,191.75"/>
    </edge>
    <edge id=":0_8" function="internal">
        <lane id=":0_8_0" index="0" speed="11.18" length="22.70" shape="401.65,188.65 401.65,211.35"/>
    </edge>
    <edge id=":0_9" function="internal">
        <lane id=":0_9_0" index="0" speed="14.53" length="8.40" shape="401.65,188.65 401.04,194.34 399.95,196.78"/>
    </edge>
    <edge id=":0_16" function="internal">
        <lane id=":0_16_0" index="0" speed="14.53" length="9.98" shape="399.95,196.78 399.22,198.40 396.19,200.84 391.95,201.65"/>
    </edge>
    <edge id=":0_10" function="internal">
        <lane id=":0_10_0" index="0" speed="14.53" length="5.00" shape="391.95,191.75 393.31,191.56 394.27,190.97 394.86,190.01 395.05,188.65"/>
    </edge>
    <edge id=":0_11" function="internal">
        <lane id=":0_11_0" index="0" speed="17.88" length="16.10" shape="391.95,195.05 408.05,195.05"/>
        <lane id=":0_11_1" index="1" speed="17.88" length="16.10" shape="391.95,198.35 408.05,198.35"/>
    </edge>
    <edge id=":0_13" function="internal">
        <lane id=":0_13_0" index="0" speed="14.53" length="5.74" shape="391.95,198.35 396.19,199.16 397.30,200.05"/>
    </edge>
    <edge id=":0_17" function="internal">
        <lane id=":0_17_0" index="0" speed="14.53" length="12.64" shape="397.30,200.05 399.23,201.60 401.04,205.66 401.65,211.35"/>
    </edge>
    <edge id=":1_0" function="internal">
        <lane id=":1_0_0" index="0" speed="14.53" length="5.00" shape="595.05,211.35 594.86,209.99 594.27,209.03 593.31,208.44 591.95,208.25"/>
    </edge>
    <edge id=":1_1" function="internal">
        <lane id=":1_1_0" index="0" speed="11.18" length="22.70" shape="598.35,211.35 598.35,188.65"/>
    </edge>
    <edge id=":1_2" function="internal">
        <lane id=":1_2_0" index="0" speed="14.53" length="8.40" shape="598.35,211.35 598.96,205.66 600.05,203.22"/>
    </edge>
    <edge id=":1_14" function="internal">
        <lane id=":1_14_0" index="0" speed="14.53" length="9.98" shape="600.05,203.22 600.78,201.60 603.81,199.16 608.05,198.35"/>
    </edge>
    <edge id=":1_3" function="internal">
        <lane id=":1_3_0" index="0" speed="14.53" length="5.00" shape="608.05,208.25 606.69,208.44 605.73,209.03 605.14,209.99 604.95,211.35"/>
    </edge>
    <edge id=":1_4" function="internal">
        <lane id=":1_4_0" index="0" speed="17.88" length="16.10" shape="608.05,204.95 591.95,204.95"/>
        <lane id=":1_4_1" index="1" speed="17.88" length="16.10" shape="608.05,201.65 591.95,201.65"/>
    </edge>
    <edge id=":1_6" function="internal">
        <lane id=":1_6_0" index="0" speed="14.53" length="5.74" shape="608.05,201.65 603.81,200.84 602.70,199.95"/>
    </edge>
    <edge id=":1_15" function="internal">
        <lane id=":1_15_0" index="0" speed="14.53" length="12.64" shape="602.70,199.95 600.77,198.40 598.96,194.34 598.35,188.65"/>
    </edge>
    <edge id=":1_7" function="internal">
        <lane id=":1_7_0" index="0" speed="14.53" length="5.00" shape="604.95,188.65 605.14,190.01 605.73,190.97 606.69,191.56 608.05,191.75"/>
    </edge>
    <edge id=":1_8" function="internal">
        <lane id=":1_8_0" index="0" speed="11.18" length="22.70" shape="601.65,188.65 601.65,211.35"/>
    </edge>
    <edge id=":1_9" function="internal">
        <lane id=":1_9_0" index="0" speed="14.53" length="8.40" shape="601.65,188.65 601.04,194.34 599.95,196.78"/>
    </edge>
    <edge id=":1_16" function="internal">
        <lane id=":1_16_0" index="0" speed="14.53" length="9.98" shape="599.95,196.78 599.22,198.40 596.19,200.84 591.95,201.65"/>
    </edge>
    <edge id=":1_10" function="internal">
        <lane id=":1_10_0" index="0" speed="14.53" length="5.00" shape="591.95,191.75 593.31,191.56 594.27,190.97 594.86,190.01 595.05,188.65"/>
    </edge>
    <edge id=":1_11" function="internal">
        <lane id=":1_11_0" index="0" speed="17.88" length="16.10" shape="591.95,195.05 608.05,195.05"/>
        <lane id=":1_11_1" index="1" speed="17.88" length="16.10" shape="591.95,198.35 608.05,198.35"/>
    </edge>
    <edge id=":1_13" function="internal">
        <lane id=":1_13_0" index="0" speed="14.53" length="5.74" shape="591.95,198.35 596.19,199.16 597.30,200.05"/>
    </edge>
    <edge id=":1_17" function="internal">
        <lane id=":1_17_0" index="0" speed="14.53" length="12.64" shape="597.30,200.05 599.23,201.60 601.04,205.66 601.65,211.35"/>
    </edge>
    <edge id=":2_0" function="internal">
        <lane id=":2_0_0" index="0" speed="14.53" length="5.00" shape="795.05,211.35 794.86,209.99 794.27,209.03 793.31,208.44 791.95,208.25"/>
    </edge>
    <edge id=":2_1" function="internal">
        <lane id=":2_1_0" index="0" speed="11.18" length="22.70" shape="798.35,211.35 798.35,188.65"/>
    </edge>
    <edge id=":2_2" function="internal">
        <lane id=":2_2_0" index="0" speed="14.53" length="8.40" shape="798.35,211.35 798.96,205.66 800.05,203.22"/>
    </edge>
    <edge id=":2_14" function="internal">
        <lane id=":2_14_0" index="0" speed="14.53" length="9.98" shape="800.05,203.22 800.78,201.60 803.81,199.16 808.05,198.35"/>
    </edge>
    <edge id=":2_3" function="internal">
        <lane id=":2_3_0" index="0" speed="14.53" length="5.00" shape="808.05,208.25 806.69,208.44 805.73,209.03 805.14,209.99 804.95,211.35"/>
    </edge>
    <edge id=":2_4" function="internal">
        <lane id=":2_4_0" index="0" speed="17.88" length="16.10" shape="808.05,204.95 791.95,204.95"/>
        <lane id=":2_4_1" index="1" speed="17.88" length="16.10" shape="808.05,201.65 791.95,201.65"/>
    </edge>
    <edge id=":2_6" function="internal">
        <lane id=":2_6_0" index="0" speed="14.53" length="5.74" shape="808.05,201.65 803.81,200.84 802.70,199.95"/>
    </edge>
    <edge id=":2_15" function="internal">
        <lane id=":2_15_0" index="0" speed="14.53" length="12.64" shape="802.70,199.95 800.77,198.40 798.96,194.34 798.35,188.65"/>
    </edge>
    <edge id=":2_7" function="internal">
        <lane id=":2_7_0" index="0" speed="14.53" length="5.00" shape="804.95,188.65 805.14,190.01 805.73,190.97 806.69,191.56 808.05,191.75"/>
    </edge>
    <edge id=":2_8" function="internal">
        <lane id=":2_8_0" index="0" speed="11.18" length="22.70" shape="801.65,188.65 801.65,211.35"/>
    </edge>
    <edge id=":2_9" function="internal">
        <lane id=":2_9_0" index="0" speed="14.53" length="8.40" shape="801.65,188.65 801.04,194.34 799.95,196.78"/>
    </edge>
    <edge id=":2_16" function="internal">
        <lane id=":2_16_0" index="0" speed="14.53" length="9.98" shape="799.95,196.78 799.22,198.40 796.19,200.84 791.95,201.65"/>
    </edge>
    <edge id=":2_10" function="internal">
        <lane id=":2_10_0" index="0" speed="14.53" length="5.00" shape="791.95,191.75 793.31,191.56 794.27,190.97 794.86,190.01 795.05,188.65"/>
    </edge>
    <edge id=":2_11" function="internal">
        <lane id=":2_11_0" index="0" speed="17.88" length="16.10" shape="791.95,195.05 808.05,195.05"/>
        <lane id=":2_11_1" index="1" speed="17.88" length="16.10" shape="791.95,198.35 808.05,198.35"/>
    </edge>
    <edge id=":2_13" function="internal">
        <lane id=":2_13_0" index="0" speed="14.53" length="5.74" shape="791.95,198.35 796.19,199.16 797.30,200.05"/>
    </edge>
    <edge id=":2_17" function="internal">
        <lane id=":2_17_0" index="0" speed="14.53" length="12.64" shape="797.30,200.05 799.23,201.60 801.04,205.66 801.65,211.35"/>
    </edge>
    <edge id=":3_0" function="internal">
        <lane id=":3_0_0" index="0" speed="14.53" length="5.00" shape="995.05,211.35 994.86,209.99 994.27,209.03 993.31,208.44 991.95,208.25"/>
    </edge>
    <edge id=":3_1" function="internal">
        <lane id=":3_1_0" index="0" speed="11.18" length="22.70" shape="998.35,211.35 998.35,188.65"/>
    </edge>
    <edge id=":3_2" function="internal">
        <lane id=":3_2_0" index="0" speed="14.53" length="8.40" shape="998.35,211.35 998.96,205.66 1000.05,203.22"/>
    </edge>
    <edge id=":3_14" function="internal">
        <lane id=":3_14_0" index="0" speed="14.53" length="9.98" shape="1000.05,203.22 1000.78,201.60 1003.81,199.16 1008.05,198.35"/>
    </edge>
    <edge id=":3_3" function="internal">
        <lane id=":3_3_0" index="0" speed="14.53" length="5.00" shape="1008.05,208.25 1006.69,208.44 1005.73,209.03 1005.14,209.99 1004.95,211.35"/>
    </edge>
    <edge id=":3_4" function="internal">
        <lane id=":3_4_0" index="0" speed="17.88" length="16.10" shape="1008.05,204.95 991.95,204.95"/>
        <lane id=":3_4_1" index="1" speed="17.88" length="16.10" shape="1008.05,201.65 991.95,201.65"/>
    </edge>
    <edge id=":3_6" function="internal">
        <lane id=":3_6_0" index="0" speed="14.53" length="5.74" shape="1008.05,201.65 1003.81,200.84 1002.70,199.95"/>
    </edge>
    <edge id=":3_15" function="internal">
        <lane id=":3_15_0" index="0" speed="14.53" length="12.64" shape="1002.70,199.95 1000.77,198.40 998.96,194.34 998.35,188.65"/>
    </edge>
    <edge id=":3_7" function="internal">
        <lane id=":3_7_0" index="0" speed="14.53" length="5.00" shape="1004.95,188.65 1005.14,190.01 1005.73,190.97 1006.69,191.56 1008.05,191.75"/>
    </edge>
    <edge id=":3_8" function="internal">
        <lane id=":3_8_0" index="0" speed="11.18" length="22.70" shape="1001.65,188.65 1001.65,211.35"/>
    </edge>
    <edge id=":3_9" function="internal">
        <lane id=":3_9_0" index="0" speed="14.53" length="8.40" shape="1001.65,188.65 1001.04,194.34 999.95,196.78"/>
    </edge>
    <edge id=":3_16" function="internal">
        <lane id=":3_16_0" index="0" speed="14.53" length="9.98" shape="999.95,196.78 999.22,198.40 996.19,200.84 991.95,201.65"/>
    </edge>
    <edge id=":3_10" function="internal">
        <lane id=":3_10_0" index="0" speed="14.53" length="5.00" shape="991.95,191.75 993.31,191.56 994.27,190.97 994.86,190.01 995.05,188.65"/>
    </edge>
    <edge id=":3_11" function="internal">
        <lane id=":3_11_0" index="0" speed="17.88" length="16.10" shape="991.95,195.05 1008.05,195.05"/>
        <lane id=":3_11_1" index="1" speed="17.88" length="16.10" shape="991.95,198.35 1008.05,198.35"/>
    </edge>
    <edge id=":3_13" function="internal">
        <lane id=":3_13_0" index="0" speed="14.53" length="5.74" shape="991.95,198.35 996.19,199.16 997.30,200.05"/>
    </edge>
    <edge id=":3_17" function="internal">
        <lane id=":3_17_0" index="0" speed="14.53" length="12.64" shape="997.30,200.05 999.23,201.60 1001.04,205.66 1001.65,211.35"/>
    </edge>
    <edge id=":4_0" function="internal">
        <lane id=":4_0_0" index="0" speed="14.53" length="5.00" shape="1195.05,211.35 1194.86,209.99 1194.27,209.03 1193.31,208.44 1191.95,208.25"/>
    </edge>
    <edge id=":4_1" function="internal">
        <lane id=":4_1_0" index="0" speed="11.18" length="22.70" shape="1198.35,211.35 1198.35,188.65"/>
    </edge>
    <edge id=":4_2" function="internal">
        <lane id=":4_2_0" index="0" speed="14.53" length="8.40" shape="1198.35,211.35 1198.96,205.66 1200.05,203.22"/>
    </edge>
    <edge id=":4_14" function="internal">
        <lane id=":4_14_0" index="0" speed="14.53" length="9.98" shape="1200.05,203.22 1200.77,201.60 1203.81,199.16 1208.05,198.35"/>
    </edge>
    <edge id=":4_3" function="internal">
        <lane id=":4_3_0" index="0" speed="14.53" length="5.00" shape="1208.05,208.25 1206.69,208.44 1205.72,209.03 1205.14,209.99 1204.95,211.35"/>
    </edge>
    <edge id=":4_4" function="internal">
        <lane id=":4_4_0" index="0" speed="17.88" length="16.10" shape="1208.05,204.95 1191.95,204.95"/>
        <lane id=":4_4_1" index="1" speed="17.88" length="16.10" shape="1208.05,201.65 1191.95,201.65"/>
    </edge>
    <edge id=":4_6" function="internal">
        <lane id=":4_6_0" index="0" speed="14.53" length="5.74" shape="1208.05,201.65 1203.81,200.84 1202.70,199.95"/>
    </edge>
    <edge id=":4_15" function="internal">
        <lane id=":4_15_0" index="0" speed="14.53" length="12.64" shape="1202.70,199.95 1200.78,198.40 1198.96,194.34 1198.35,188.65"/>
    </edge>
    <edge id=":4_7" function="internal">
        <lane id=":4_7_0" index="0" speed="14.53" length="5.00" shape="1204.95,188.65 1205.14,190.01 1205.73,190.97 1206.69,191.56 1208.05,191.75"/>
    </edge>
    <edge id=":4_8" function="internal">
        <lane id=":4_8_0" index="0" speed="11.18" length="22.70" shape="1201.65,188.65 1201.65,211.35"/>
    </edge>
    <edge id=":4_9" function="internal">
        <lane id=":4_9_0" index="0" speed="14.53" length="8.40" shape="1201.65,188.65 1201.04,194.34 1199.95,196.78"/>
    </edge>
    <edge id=":4_16" function="internal">
        <lane id=":4_16_0" index="0" speed="14.53" length="9.98" shape="1199.95,196.78 1199.23,198.40 1196.19,200.84 1191.95,201.65"/>
    </edge>
    <edge id=":4_10" function="internal">
        <lane id=":4_10_0" index="0" speed="14.53" length="5.00" shape="1191.95,191.75 1193.31,191.56 1194.28,190.97 1194.86,190.01 1195.05,188.65"/>
    </edge>
    <edge id=":4_11" function="internal">
        <lane id=":4_11_0" index="0" speed="17.88" length="16.10" shape="1191.95,195.05 1208.05,195.05"/>
        <lane id=":4_11_1" index="1" speed="17.88" length="16.10" shape="1191.95,198.35 1208.05,198.35"/>
    </edge>
    <edge id=":4_13" function="internal">
        <lane id=":4_13_0" index="0" speed="14.53" length="5.74" shape="1191.95,198.35 1196.19,199.16 1197.30,200.05"/>
    </edge>
    <edge id=":4_17" function="internal">
        <lane id=":4_17_0" index="0" speed="14.53" length="12.64" shape="1197.30,200.05 1199.22,201.60 1201.04,205.66 1201.65,211.35"/>
    </edge>
    <edge id=":5_0" function="internal">
        <lane id=":5_0_0" index="0" speed="14.53" length="5.00" shape="1395.05,211.35 1394.86,209.99 1394.27,209.03 1393.31,208.44 1391.95,208.25"/>
    </edge>
    <edge id=":5_1" function="internal">
        <lane id=":5_1_0" index="0" speed="11.18" length="22.70" shape="1398.35,211.35 1398.35,188.65"/>
    </edge>
    <edge id=":5_2" function="internal">
        <lane id=":5_2_0" index="0" speed="14.53" length="8.40" shape="1398.35,211.35 1398.96,205.66 1400.05,203.22"/>
    </edge>
    <edge id=":5_14" function="internal">
        <lane id=":5_14_0" index="0" speed="14.53" length="9.98" shape="1400.05,203.22 1400.77,201.60 1403.81,199.16 1408.05,198.35"/>
    </edge>
    <edge id=":5_3" function="internal">
        <lane id=":5_3_0" index="0" speed="14.53" length="5.00" shape="1408.05,208.25 1406.69,208.44 1405.72,209.03 1405.14,209.99 1404.95,211.35"/>
    </edge>
    <edge id=":5_4" function="internal">
        <lane id=":5_4_0" index="0" speed="17.88" length="16.10" shape="1408.05,204.95 1391.95,204.95"/>
        <lane id=":5_4_1" index="1" speed="17.88" length="16.10" shape="1408.05,201.65 1391.95,201.65"/>
    </edge>
    <edge id=":5_6" function="internal">
        <lane id=":5_6_0" index="0" speed="14.53" length="5.74" shape="1408.05,201.65 1403.81,200.84 1402.70,199.95"/>
    </edge>
    <edge id=":5_15" function="internal">
        <lane id=":5_15_0" index="0" speed="14.53" length="12.64" shape="1402.70,199.95 1400.78,198.40 1398.96,194.34 1398.35,188.65"/>
    </edge>
    <edge id=":5_7" function="internal">
        <lane id=":5_7_0" index="0" speed="14.53" length="5.00" shape="1404.95,188.65 1405.14,190.01 1405.73,190.97 1406.69,191.56 1408.05,191.75"/>
    </edge>
    <edge id=":5_8" function="internal">
        <lane id=":5_8_0" index="0" speed="11.18" length="22.70" shape="1401.65,188.65 1401.65,211.35"/>
    </edge>
    <edge id=":5_9" function="internal">
        <lane id=":5_9_0" index="0" speed="14.53" length="8.40" shape="1401.65,188.65 1401.04,194.34 1399.95,196.78"/>
    </edge>
    <edge id=":5_16" function="internal">
        <lane id=":5_16_0" index="0" speed="14.53" length="9.98" shape="1399.95,196.78 1399.23,198.40 1396.19,200.84 1391.95,201.65"/>
    </edge>
    <edge id=":5_10" function="internal">
        <lane id=":5_10_0" index="0" speed="14.53" length="5.00" shape="1391.95,191.75 1393.31,191.56 1394.28,190.97 1394.86,190.01 1395.05,188.65"/>
    </edge>
    <edge id=":5_11" function="internal">
        <lane id=":5_11_0" index="0" speed="17.88" length="16.10" shape="1391.95,195.05 1408.05,195.05"/>
        <lane id=":5_11_1" index="1" speed="17.88" length="16.10" shape="1391.95,198.35 1408.05,198.35"/>
    </edge>
    <edge id=":5_13" function="internal">
        <lane id=":5_13_0" index="0" speed="14.53" length="5.74" shape="1391.95,198.35 1396.19,199.16 1397.30,200.05"/>
    </edge>
    <edge id=":5_17" function="internal">
        <lane id=":5_17_0" index="0" speed="14.53" length="12.64" shape="1397.30,200.05 1399.22,201.60 1401.04,205.66 1401.65,211.35"/>
    </edge>
    <edge id=":6_0" function="internal">
        <lane id=":6_0_0" index="0" speed="14.53" length="5.00" shape="1595.05,211.35 1594.86,209.99 1594.27,209.03 1593.31,208.44 1591.95,208.25"/>
    </edge>
    <edge id=":6_1" function="internal">
        <lane id=":6_1_0" index="0" speed="11.18" length="22.70" shape="1598.35,211.35 1598.35,188.65"/>
    </edge>
    <edge id=":6_2" function="internal">
        <lane id=":6_2_0" index="0" speed="14.53" length="8.40" shape="1598.35,211.35 1598.96,205.66 1600.05,203.22"/>
    </edge>
    <edge id=":6_14" function="internal">
        <lane id=":6_14_0" index="0" speed="14.53" length="9.98" shape="1600.05,203.22 1600.77,201.60 1603.81,199.16 1608.05,198.35"/>
    </edge>
    <edge id=":6_3" function="internal">
        <lane id=":6_3_0" index="0" speed="14.53" length="5.00" shape="1608.05,208.25 1606.69,208.44 1605.72,209.03 1605.14,209.99 1604.95,211.35"/>
    </edge>
    <edge id=":6_4" function="internal">
        <lane id=":6_4_0" index="0" speed="17.88" length="16.10" shape="1608.05,204.95 1591.95,204.95"/>
        <lane id=":6_4_1" index="1" speed="17.88" length="16.10" shape="1608.05,201.65 1591.95,201.65"/>
    </edge>
    <edge id=":6_6" function="internal">
        <lane id=":6_6_0" index="0" speed="14.53" length="5.74" shape="1608.05,201.65 1603.81,200.84 1602.70,199.95"/>
    </edge>
    <edge id=":6_15" function="internal">
        <lane id=":6_15_0" index="0" speed="14.53" length="12.64" shape="1602.70,199.95 1600.78,198.40 1598.96,194.34 1598.35,188.65"/>
    </edge>
    <edge id=":6_7" function="internal">
        <lane id=":6_7_0" index="0" speed="14.53" length="5.00" shape="1604.95,188.65 1605.14,190.01 1605.73,190.97 1606.69,191.56 1608.05,191.75"/>
    </edge>
    <edge id=":6_8" function="internal">
        <lane id=":6_8_0" index="0" speed="11.18" length="22.70" shape="1601.65,188.65 1601.65,211.35"/>
    </edge>
    <edge id=":6_9" function="internal">
        <lane id=":6_9_0" index="0" speed="14.53" length="8.40" shape="1601.65,188.65 1601.04,194.34 1599.95,196.78"/>
    </edge>
    <edge id=":6_16" function="internal">
        <lane id=":6_16_0" index="0" speed="14.53" length="9.98" shape="1599.95,196.78 1599.23,198.40 1596.19,200.84 1591.95,201.65"/>
    </edge>
    <edge id=":6_10" function="internal">
        <lane id=":6_10_0" index="0" speed="14.53" length="5.00" shape="1591.95,191.75 1593.31,191.56 1594.28,190.97 1594.86,190.01 1595.05,188.65"/>
    </edge>
    <edge id=":6_11" function="internal">
        <lane id=":6_11_0" index="0" speed="17.88" length="16.10" shape="1591.95,195.05 1608.05,195.05"/>
        <lane id=":6_11_1" index="1" speed="17.88" length="16.10" shape="1591.95,198.35 1608.05,198.35"/>
    </edge>
    <edge id=":6_13" function="internal">
        <lane id=":6_13_0" index="0" speed="14.53" length="5.74" shape="1591.95,198.35 1596.19,199.16 1597.30,200.05"/>
    </edge>
    <edge id=":6_17" function="internal">
        <lane id=":6_17_0" index="0" speed="14.53" length="12.64" shape="1597.30,200.05 1599.22,201.60 1601.04,205.66 1601.65,211.35"/>
    </edge>
    <edge id=":7_0" function="internal">
        <lane id=":7_0_0" index="0" speed="14.53" length="5.00" shape="1795.05,211.35 1794.86,209.99 1794.27,209.03 1793.31,208.44 1791.95,208.25"/>
    </edge>
    <edge id=":7_1" function="internal">
        <lane id=":7_1_0" index="0" speed="11.18" length="22.70" shape="1798.35,211.35 1798.35,188.65"/>
    </edge>
    <edge id=":7_2" function="internal">
        <lane id=":7_2_0" index="0" speed="14.53" length="8.40" shape="1798.35,211.35 1798.96,205.66 1800.05,203.22"/>
    </edge>
    <edge id=":7_14" function="internal">
        <lane id=":7_14_0" index="0" speed="14.53" length="9.98" shape="1800.05,203.22 1800.77,201.60 1803.81,199.16 1808.05,198.35"/>
    </edge>
    <edge id=":7_3" function="internal">
        <lane id=":7_3_0" index="0" speed="14.53" length="5.00" shape="1808.05,208.25 1806.69,208.44 1805.72,209.03 1805.14,209.99 1804.95,211.35"/>
    </edge>
    <edge id=":7_4" function="internal">
        <lane id=":7_4_0" index="0" speed="17.88" length="16.10" shape="1808.05,204.95 1791.95,204.95"/>
        <lane id=":7_4_1" index="1" speed="17.88" length="16.10" shape="1808.05,201.65 1791.95,201.65"/>
    </edge>
    <edge id=":7_6" function="internal">
        <lane id=":7_6_0" index="0" speed="14.53" length="5.74" shape="1808.05,201.65 1803.81,200.84 1802.70,199.95"/>
    </edge>
    <edge id=":7_15" function="internal">
        <lane id=":7_15_0" index="0" speed="14.53" length="12.64" shape="1802.70,199.95 1800.78,198.40 1798.96,194.34 1798.35,188.65"/>
    </edge>
    <edge id=":7_7" function="internal">
        <lane id=":7_7_0" index="0" speed="14.53" length="5.00" shape="1804.95,188.65 1805.14,190.01 1805.73,190.97 1806.69,191.56 1808.05,191.75"/>
    </edge>
    <edge id=":7_8" function="internal">
        <lane id=":7_8_0" index="0" speed="11.18" length="22.70" shape="1801.65,188.65 1801.65,211.35"/>
    </edge>
    <edge id=":7_9" function="internal">
        <lane id=":7_9_0" index="0" speed="14.53" length="8.40" shape="1801.65,188.65 1801.04,194.34 1799.95,196.78"/>
    </edge>
    <edge id=":7_16" function="internal">
        <lane id=":7_16_0" index="0" speed="14.53" length="9.98" shape="1799.95,196.78 1799.23,198.40 1796.19,200.84 1791.95,201.65"/>
    </edge>
    <edge id=":7_10" function="internal">
        <lane id=":7_10_0" index="0" speed="14.53" length="5.00" shape="1791.95,191.75 1793.31,191.56 1794.28,190.97 1794.86,190.01 1795.05,188.65"/>
    </edge>
    <edge id=":7_11" function="internal">
        <lane id=":7_11_0" index="0" speed="17.88" length="16.10" shape="1791.95,195.05 1808.05,195.05"/>
        <lane id=":7_11_1" index="1" speed="17.88" length="16.10" shape="1791.95,198.35 1808.05,198.35"/>
    </edge>
    <edge id=":7_13" function="internal">
        <lane id=":7_13_0" index="0" speed="14.53" length="5.74" shape="1791.95,198.35 1796.19,199.16 1797.30,200.05"/>
    </edge>
    <edge id=":7_17" function="internal">
        <lane id=":7_17_0" index="0" speed="14.53" length="12.64" shape="1797.30,200.05 1799.22,201.60 1801.04,205.66 1801.65,211.35"/>
    </edge>

    <edge id="A01" from="0" to="1" priority="3" type="a">
        <lane id="A01_0" index="0" speed="17.88" length="183.90" shape="408.05,191.75 591.95,191.75"/>
        <lane id="A01_1" index="1" speed="17.88" length="183.90" shape="408.05,195.05 591.95,195.05"/>
        <lane id="A01_2" index="2" speed="17.88" length="183.90" shape="408.05,198.35 591.95,198.35"/>
    </edge>
    <edge id="A08" from="0" to="8" priority="3" type="a">
        <lane id="A08_0" index="0" speed="17.88" length="391.95" shape="391.95,208.25 0.00,208.25"/>
        <lane id="A08_1" index="1" speed="17.88" length="391.95" shape="391.95,204.95 0.00,204.95"/>
        <lane id="A08_2" index="2" speed="17.88" length="391.95" shape="391.95,201.65 0.00,201.65"/>
    </edge>
    <edge id="A10" from="1" to="0" priority="3" type="a">
        <lane id="A10_0" index="0" speed="17.88" length="183.90" shape="591.95,208.25 408.05,208.25"/>
        <lane id="A10_1" index="1" speed="17.88" length="183.90" shape="591.95,204.95 408.05,204.95"/>
        <lane id="A10_2" index="2" speed="17.88" length="183.90" shape="591.95,201.65 408.05,201.65"/>
    </edge>
    <edge id="A12" from="1" to="2" priority="3" type="a">
        <lane id="A12_0" index="0" speed="17.88" length="183.90" shape="608.05,191.75 791.95,191.75"/>
        <lane id="A12_1" index="1" speed="17.88" length="183.90" shape="608.05,195.05 791.95,195.05"/>
        <lane id="A12_2" index="2" speed="17.88" length="183.90" shape="608.05,198.35 791.95,198.35"/>
    </edge>
    <edge id="A21" from="2" to="1" priority="3" type="a">
        <lane id="A21_0" index="0" speed="17.88" length="183.90" shape="791.95,208.25 608.05,208.25"/>
        <lane id="A21_1" index="1" speed="17.88" length="183.90" shape="791.95,204.95 608.05,204.95"/>
        <lane id="A21_2" index="2" speed="17.88" length="183.90" shape="791.95,201.65 608.05,201.65"/>
    </edge>
    <edge id="A23" from="2" to="3" priority="3" type="a">
        <lane id="A23_0" index="0" speed="17.88" length="183.90" shape="808.05,191.75 991.95,191.75"/>
        <lane id="A23_1" index="1" speed="17.88" length="183.90" shape="808.05,195.05 991.95,195.05"/>
        <lane id="A23_2" index="2" speed="17.88" length="183.90" shape="808.05,198.35 991.95,198.35"/>
    </edge>
    <edge id="A32" from="3" to="2" priority="3" type="a">
        <lane id="A32_0" index="0" speed="17.88" length="183.90" shape="991.95,208.25 808.05,208.25"/>
        <lane id="A32_1" index="1" speed="17.88" length="183.90" shape="991.95,204.95 808.05,204.95"/>
        <lane id="A32_2" index="2" speed="17.88" length="183.90" shape="991.95,201.65 808.05,201.65"/>
    </edge>
    <edge id="A34" from="3" to="4" priority="3" type="a">
        <lane id="A34_0" index="0" speed="17.88" length="183.90" shape="1008.05,191.75 1191.95,191.75"/>
        <lane id="A34_1" index="1" speed="17.88" length="183.90" shape="1008.05,195.05 1191.95,195.05"/>
        <lane id="A34_2" index="2" speed="17.88" length="183.90" shape="1008.05,198.35 1191.95,198.35"/>
    </edge>
    <edge id="A43" from="4" to="3" priority="3" type="a">
        <lane id="A43_0" index="0" speed="17.88" length="183.90" shape="1191.95,208.25 1008.05,208.25"/>
        <lane id="A43_1" index="1" speed="17.88" length="183.90" shape="1191.95,204.95 1008.05,204.95"/>
        <lane id="A43_2" index="2" speed="17.88" length="183.90" shape="1191.95,201.65 1008.05,201.65"/>
    </edge>
    <edge id="A45" from="4" to="5" priority="3" type="a">
        <lane id="A45_0" index="0" speed="17.88" length="183.90" shape="1208.05,191.75 1391.95,191.75"/>
        <lane id="A45_1" index="1" speed="17.88" length="183.90" shape="1208.05,195.05 1391.95,195.05"/>
        <lane id="A45_2" index="2" speed="17.88" length="183.90" shape="1208.05,198.35 1391.95,198.35"/>
    </edge>
    <edge id="A54" from="5" to="4" priority="3" type="a">
        <lane id="A54_0" index="0" speed="17.88" length="183.90" shape="1391.95,208.25 1208.05,208.25"/>
        <lane id="A54_1" index="1" speed="17.88" length="183.90" shape="1391.95,204.95 1208.05,204.95"/>
        <lane id="A54_2" index="2" speed="17.88" length="183.90" shape="1391.95,201.65 1208.05,201.65"/>
    </edge>