<?xml version="1.0" encoding="UTF-8"?>

<configuration xmlns:xsi="http://www.w3.org/2001/XMLSchema-instance" xsi:noNamespaceSchemaLocation="http://sumo.dlr.de/xsd/duarouterConfiguration.xsd">

    <input>
        <net-file value="quickstart.net.xml"/>
        <trip-files value="quickstart.trips.xml"/>
    </input>

    <output>
        <output-file value="quickstartod.rou.xml"/>
    </output>

</configuration>
