<?xml version="1.0" encoding="UTF-8"?>

<!-- generated on Tue Feb 27 20:25:36 2018 by SUMO od2trips Version 0.30.0
<?xml version="1.0" encoding="UTF-8"?>

<configuration xmlns:xsi="http://www.w3.org/2001/XMLSchema-instance" xsi:noNamespaceSchemaLocation="http://sumo.dlr.de/xsd/od2tripsConfiguration.xsd">

    <input>
        <taz-files value="input_taz.taz.xml"/>
        <od-amitran-files value="input_od.xml"/>
    </input>

    <output>
        <output-file value="quickstart.trips.xml"/>
        <ignore-vehicle-type value="true"/>
    </output>

    <processing>
        <scale value="1"/>
    </processing>

</configuration>
-->

<routes xmlns:xsi="http://www.w3.org/2001/XMLSchema-instance" xsi:noNamespaceSchemaLocation="http://sumo.dlr.de/xsd/routes_file.xsd">
    <trip id="59" depart="0.79" from="m1i" to="m13o" fromTaz="10" toTaz="22" departLane="free" departSpeed="max"/>
    <trip id="1089" depart="1.83" from="m13i" to="m9o" fromTaz="22" toTaz="18" departLane="free" departSpeed="max"/>
    <trip id="522" depart="2.75" from="m7i" to="m3o" fromTaz="16" toTaz="12" departLane="free" departSpeed="max"/>
    <trip id="485" depart="4.77" from="m6i" to="m14o" fromTaz="15" toTaz="23" departLane="free" departSpeed="max"/>
    <trip id="295" depart="6.14" from="m4i" to="m10o" fromTaz="13" toTaz="19" departLane="free" departSpeed="max"/>
    <trip id="1639" depart="10.16" from="m16i" to="m13o" fromTaz="25" toTaz="22" departLane="free" departSpeed="max"/>
    <trip id="1888" depart="11.45" from="A97" to="m16o" fromTaz="9" toTaz="25" departLane="free" departSpeed="max"/>
    <trip id="1491" depart="14.07" from="m15i" to="m16o" fromTaz="24" toTaz="25" departLane="free" departSpeed="max"/>
    <trip id="885" depart="19.77" from="m12i" to="m6o" fromTaz="21" toTaz="15" departLane="free" departSpeed="max"/>
    <trip id="1507" depart="21.76" from="m15i" to="A79" fromTaz="24" toTaz="9" departLane="free" departSpeed="max"/>
    <trip id="1014" depart="22.28" from="m13i" to="m2o" fromTaz="22" toTaz="11" departLane="free" departSpeed="max"/>
    <trip id="1311" depart="22.82" from="m14i" to="m15o" fromTaz="23" toTaz="24" departLane="free" departSpeed="max"/>
    <trip id="365" depart="23.05" from="m5i" to="m7o" fromTaz="14" toTaz="16" departLane="free" departSpeed="max"/>
    <trip id="1068" depart="23.89" from="m13i" to="m7o" fromTaz="22" toTaz="16" departLane="free" departSpeed="max"/>
    <trip id="1342" depart="24.44" from="m14i" to="A79" fromTaz="23" toTaz="9" departLane="free" departSpeed="max"/>
    <trip id="585" depart="24.98" from="m7i" to="A08" fromTaz="16" toTaz="8" departLane="free" departSpeed="max"/>
    <trip id="1676" depart="25.86" from="m16i" to="A79" fromTaz="25" toTaz="9" departLane="free" departSpeed="max"/>
    <trip id="897" depart="29.15" from="m12i" to="m7o" fromTaz="21" toTaz="16" departLane="free" departSpeed="max"/>
    <trip id="1872" depart="30.26" from="A97" to="m12o" fromTaz="9" toTaz="21" departLane="free" departSpeed="max"/>
    <trip id="1301" depart="32.14" from="m14i" to="m13o" fromTaz="23" toTaz="22" departLane="free" departSpeed="max"/>
    <trip id="1653" depart="35.00" from="m16i" to="m15o" fromTaz="25" toTaz="24" departLane="free" departSpeed="max"/>
    <trip id="691" depart="35.70" from="m9i" to="m4o" fromTaz="18" toTaz="13" departLane="free" departSpeed="max"/>
    <trip id="1207" depart="36.35" from="m14i" to="m4o" fromTaz="23" toTaz="13" departLane="free" departSpeed="max"/>
    <trip id="1739" depart="37.39" from="A80" to="m12o" fromTaz="8" toTaz="21" departLane="free" departSpeed="max"/>
    <trip id="808" depart="38.97" from="m11i" to="m9o" fromTaz="20" toTaz="18" departLane="free" departSpeed="max"/>
    <trip id="131" depart="39.03" from="m2i" to="m11o" fromTaz="11" toTaz="20" departLane="free" departSpeed="max"/>
    <trip id="1163" depart="44.80" from="m13i" to="A79" fromTaz="22" toTaz="9" departLane="free" departSpeed="max"/>
    <trip id="1330" depart="44.99" from="m14i" to="A08" fromTaz="23" toTaz="8" departLane="free" departSpeed="max"/>
    <trip id="1359" depart="51.33" from="m15i" to="m2o" fromTaz="24" toTaz="11" departLane="free" departSpeed="max"/>
    <trip id="1582" depart="53.94" from="m16i" to="m7o" fromTaz="25" toTaz="16" departLane="free" departSpeed="max"/>
    <trip id="1842" depart="55.12" from="A97" to="m6o" fromTaz="9" toTaz="15" departLane="free" departSpeed="max"/>
    <trip id="1767" depart="56.27" from="A80" to="A79" fromTaz="8" toTaz="9" departLane="free" departSpeed="max"/>
    <trip id="421" depart="58.23" from="m5i" to="A79" fromTaz="14" toTaz="9" departLane="free" departSpeed="max"/>
    <trip id="977" depart="59.07" from="m12i" to="m16o" fromTaz="21" toTaz="25" departLane="free" departSpeed="max"/>
    <trip id="1587" depart="62.44" from="m16i" to="m8o" fromTaz="25" toTaz="17" departLane="free" departSpeed="max"/>
    <trip id="710" depart="63.32" from="m9i" to="m12o" fromTaz="18" toTaz="21" departLane="free" departSpeed="max"/>
    <trip id="1766" depart="65.23" from="A80" to="A79" fromTaz="8" toTaz="9" departLane="free" departSpeed="max"/>
    <trip id="1467" depart="66.73" from="m15i" to="m13o" fromTaz="24" toTaz="22" departLane="free" departSpeed="max"/>
    <trip id="821" depart="67.30" from="m11i" to="m15o" fromTaz="20" toTaz="24" departLane="free" departSpeed="max"/>
    <trip id="385" depart="70.25" from="m5i" to="m11o" fromTaz="14" toTaz="20" departLane="free" departSpeed="max"/>
    <trip id="558" depart="70.72" from="m7i" to="m11o" fromTaz="16" toTaz="20" departLane="free" departSpeed="max"/>
    <trip id="1001" depart="72.86" from="m12i" to="A79" fromTaz="21" toTaz="9" departLane="free" departSpeed="max"/>
    <trip id="1396" depart="73.44" from="m15i" to="m6o" fromTaz="24" toTaz="15" departLane="free" departSpeed="max"/>
    <trip id="665" depart="76.05" from="m8i" to="m16o" fromTaz="17" toTaz="25" departLane="free" departSpeed="max"/>
    <trip id="515" depart="76.76" from="m7i" to="m2o" fromTaz="16" toTaz="11" departLane="free" departSpeed="max"/>
    <trip id="928" depart="76.97" from="m12i" to="m10o" fromTaz="21" toTaz="19" departLane="free" departSpeed="max"/>
    <trip id="390" depart="77.89" from="m5i" to="m12o" fromTaz="14" toTaz="21" departLane="free" departSpeed="max"/>
    <trip id="302" depart="79.84" from="m4i" to="m11o" fromTaz="13" toTaz="20" departLane="free" departSpeed="max"/>
    <trip id="178" depart="88.60" from="m3i" to="m2o" fromTaz="12" toTaz="11" departLane="free" departSpeed="max"/>
    <trip id="769" depart="88.88" from="m10i" to="m14o" fromTaz="19" toTaz="23" departLane="free" departSpeed="max"/>
    <trip id="934" depart="89.14" from="m12i" to="m11o" fromTaz="21" toTaz="20" departLane="free" departSpeed="max"/>
    <trip id="349" depart="90.56" from="m5i" to="m2o" fromTaz="14" toTaz="11" departLane="free" departSpeed="max"/>
    <trip id="1606" depart="90.97" from="m16i" to="m10o" fromTaz="25" toTaz="19" departLane="free" departSpeed="max"/>
    <trip id="840" depart="92.51" from="m12i" to="m1o" fromTaz="21" toTaz="10" departLane="free" departSpeed="max"/>
    <trip id="1282" depart="94.16" from="m14i" to="m11o" fromTaz="23" toTaz="20" departLane="free" departSpeed="max"/>
    <trip id="630" depart="94.44" from="m8i" to="m9o" fromTaz="17" toTaz="18" departLane="free" departSpeed="max"/>
    <trip id="163" depart="94.83" from="m2i" to="A08" fromTaz="11" toTaz="8" departLane="free" departSpeed="max"/>
    <trip id="848" depart="95.90" from="m12i" to="m2o" fromTaz="21" toTaz="11" departLane="free" departSpeed="max"/>
    <trip id="943" depart="96.84" from="m12i" to="m13o" fromTaz="21" toTaz="22" departLane="free" departSpeed="max"/>
    <trip id="810" depart="98.80" from="m11i" to="m10o" fromTaz="20" toTaz="19" departLane="free" departSpeed="max"/>
    <trip id="1298" depart="100.27" from="m14i" to="m13o" fromTaz="23" toTaz="22" departLane="free" departSpeed="max"/>
    <trip id="87" depart="100.63" from="m2i" to="m1o" fromTaz="11" toTaz="10" departLane="free" departSpeed="max"/>
    <trip id="209" depart="101.43" from="m3i" to="m9o" fromTaz="12" toTaz="18" departLane="free" departSpeed="max"/>
    <trip id="1599" depart="101.87" from="m16i" to="m9o" fromTaz="25" toTaz="18" departLane="free" departSpeed="max"/>
    <trip id="1805" depart="103.47" from="A80" to="A79" fromTaz="8" toTaz="9" departLane="free" departSpeed="max"/>
    <trip id="1539" depart="103.83" from="m16i" to="m3o" fromTaz="25" toTaz="12" departLane="free" departSpeed="max"/>
    <trip id="1125" depart="104.56" from="m13i" to="m14o" fromTaz="22" toTaz="23" departLane="free" departSpeed="max"/>
    <trip id="814" depart="104.65" from="m11i" to="m12o" fromTaz="20" toTaz="21" departLane="free" departSpeed="max"/>
    <trip id="1661" depart="105.24" from="m16i" to="m15o" fromTaz="25" toTaz="24" departLane="free" departSpeed="max"/>
    <trip id="343" depart="107.93" from="m5i" to="m1o" fromTaz="14" toTaz="10" departLane="free" departSpeed="max"/>
    <trip id="818" depart="110.09" from="m11i" to="m14o" fromTaz="20" toTaz="23" departLane="free" departSpeed="max"/>
    <trip id="891" depart="120.35" from="m12i" to="m6o" fromTaz="21" toTaz="15" departLane="free" departSpeed="max"/>
    <trip id="55" depart="121.78" from="m1i" to="m13o" fromTaz="10" toTaz="22" departLane="free" departSpeed="max"/>
    <trip id="386" depart="122.68" from="m5i" to="m11o" fromTaz="14" toTaz="20" departLane="free" departSpeed="max"/>
    <trip id="1091" depart="123.30" from="m13i" to="m9o" fromTaz="22" toTaz="18" departLane="free" departSpeed="max"/>
    <trip id="947" depart="125.00" from="m12i" to="m13o" fromTaz="21" toTaz="22" departLane="free" departSpeed="max"/>
    <trip id="1405" depart="125.20" from="m15i" to="m7o" fromTaz="24" toTaz="16" departLane="free" departSpeed="max"/>
    <trip id="1698" depart="127.90" from="A80" to="m4o" fromTaz="8" toTaz="13" departLane="free" departSpeed="max"/>
    <trip id="1490" depart="128.15" from="m15i" to="m16o" fromTaz="24" toTaz="25" departLane="free" departSpeed="max"/>
    <trip id="413" depart="128.34" from="m5i" to="m16o" fromTaz="14" toTaz="25" departLane="free" departSpeed="max"/>
    <trip id="1425" depart="128.61" from="m15i" to="m9o" fromTaz="24" toTaz="18" departLane="free" departSpeed="max"/>
    <trip id="884" depart="141.40" from="m12i" to="m6o" fromTaz="21" toTaz="15" departLane="free" departSpeed="max"/>
    <trip id="1486" depart="146.43" from="m15i" to="m16o" fromTaz="24" toTaz="25" departLane="free" departSpeed="max"/>
    <trip id="374" depart="146.94" from="m5i" to="m8o" fromTaz="14" toTaz="17" departLane="free" departSpeed="max"/>
    <trip id="542" depart="149.02" from="m7i" to="m8o" fromTaz="16" toTaz="17" departLane="free" departSpeed="max"/>
    <trip id="298" depart="150.40" from="m4i" to="m10o" fromTaz="13" toTaz="19" departLane="free" departSpeed="max"/>
    <trip id="528" depart="153.62" from="m7i" to="m4o" fromTaz="16" toTaz="13" departLane="free" departSpeed="max"/>
    <trip id="1460" depart="154.88" from="m15i" to="m12o" fromTaz="24" toTaz="21" departLane="free" departSpeed="max"/>
    <trip id="1329" depart="158.23" from="m14i" to="A08" fromTaz="23" toTaz="8" departLane="free" departSpeed="max"/>
    <trip id="1757" depart="159.39" from="A80" to="m15o" fromTaz="8" toTaz="24" departLane="free" departSpeed="max"/>
    <trip id="926" depart="161.60" from="m12i" to="m10o" fromTaz="21" toTaz="19" departLane="free" departSpeed="max"/>
    <trip id="17" depart="163.02" from="m1i" to="m5o" fromTaz="10" toTaz="14" departLane="free" departSpeed="max"/>
    <trip id="210" depart="170.05" from="m3i" to="m10o" fromTaz="12" toTaz="19" departLane="free" departSpeed="max"/>
    <trip id="379" depart="171.44" from="m5i" to="m9o" fromTaz="14" toTaz="18" departLane="free" departSpeed="max"/>
    <trip id="979" depart="179.28" from="m12i" to="m16o" fromTaz="21" toTaz="25" departLane="free" departSpeed="max"/>
    <trip id="1547" depart="181.97" from="m16i" to="m4o" fromTaz="25" toTaz="13" departLane="free" departSpeed="max"/>
    <trip id="428" depart="182.42" from="m6i" to="m1o" fromTaz="15" toTaz="10" departLane="free" departSpeed="max"/>
    <trip id="1804" depart="183.21" from="A80" to="A79" fromTaz="8" toTaz="9" departLane="free" departSpeed="max"/>
    <trip id="950" depart="185.27" from="m12i" to="m13o" fromTaz="21" toTaz="22" departLane="free" departSpeed="max"/>
    <trip id="1035" depart="186.49" from="m13i" to="m4o" fromTaz="22" toTaz="13" departLane="free" departSpeed="max"/>
    <trip id="353" depart="187.53" from="m5i" to="m3o" fromTaz="14" toTaz="12" departLane="free" departSpeed="max"/>
    <trip id="1034" depart="187.95" from="m13i" to="m4o" fromTaz="22" toTaz="13" departLane="free" departSpeed="max"/>
    <trip id="43" depart="188.13" from="m1i" to="m10o" fromTaz="10" toTaz="19" departLane="free" departSpeed="max"/>
    <trip id="261" depart="188.21" from="m4i" to="m2o" fromTaz="13" toTaz="11" departLane="free" departSpeed="max"/>
    <trip id="325" depart="189.34" from="m4i" to="m16o" fromTaz="13" toTaz="25" departLane="free" departSpeed="max"/>
    <trip id="1723" depart="193.05" from="A80" to="m9o" fromTaz="8" toTaz="18" departLane="free" departSpeed="max"/>
    <trip id="98" depart="196.41" from="m2i" to="m4o" fromTaz="11" toTaz="13" departLane="free" departSpeed="max"/>
    <trip id="1225" depart="200.03" from="m14i" to="m6o" fromTaz="23" toTaz="15" departLane="free" departSpeed="max"/>
    <trip id="452" depart="201.49" from="m6i" to="m7o" fromTaz="15" toTaz="16" departLane="free" departSpeed="max"/>
    <trip id="1831" depart="204.31" from="A97" to="m4o" fromTaz="9" toTaz="13" departLane="free" departSpeed="max"/>
    <trip id="1463" depart="204.83" from="m15i" to="m13o" fromTaz="24" toTaz="22" departLane="free" departSpeed="max"/>
    <trip id="58" depart="207.72" from="m1i" to="m13o" fromTaz="10" toTaz="22" departLane="free" departSpeed="max"/>
    <trip id="154" depart="211.05" from="m2i" to="m15o" fromTaz="11" toTaz="24" departLane="free" departSpeed="max"/>
    <trip id="1470" depart="211.66" from="m15i" to="m13o" fromTaz="24" toTaz="22" departLane="free" departSpeed="max"/>
    <trip id="1499" depart="217.22" from="m15i" to="A08" fromTaz="24" toTaz="8" departLane="free" departSpeed="max"/>
    <trip id="509" depart="217.98" from="m6i" to="A79" fromTaz="15" toTaz="9" departLane="free" departSpeed="max"/>
    <trip id="851" depart="218.23" from="m12i" to="m2o" fromTaz="21" toTaz="11" departLane="free" departSpeed="max"/>
    <trip id="1136" depart="219.03" from="m13i" to="m15o" fromTaz="22" toTaz="24" departLane="free" departSpeed="max"/>
    <trip id="382" depart="220.65" from="m5i" to="m10o" fromTaz="14" toTaz="19" departLane="free" departSpeed="max"/>
    <trip id="246" depart="222.36" from="m3i" to="A08" fromTaz="12" toTaz="8" departLane="free" departSpeed="max"/>
    <trip id="423" depart="222.41" from="m5i" to="A79" fromTaz="14" toTaz="9" departLane="free" departSpeed="max"/>
    <trip id="1473" depart="223.52" from="m15i" to="m14o" fromTaz="24" toTaz="23" departLane="free" departSpeed="max"/>
    <trip id="1662" depart="223.59" from="m16i" to="m15o" fromTaz="25" toTaz="24" departLane="free" departSpeed="max"/>
    <trip id="1593" depart="224.98" from="m16i" to="m9o" fromTaz="25" toTaz="18" departLane="free" departSpeed="max"/>
    <trip id="1646" depart="227.42" from="m16i" to="m14o" fromTaz="25" toTaz="23" departLane="free" departSpeed="max"/>
    <trip id="1024" depart="232.39" from="m13i" to="m3o" fromTaz="22" toTaz="12" departLane="free" departSpeed="max"/>
    <trip id="876" depart="236.20" from="m12i" to="m5o" fromTaz="21" toTaz="14" departLane="free" departSpeed="max"/>
    <trip id="1865" depart="237.93" from="A97" to="m11o" fromTaz="9" toTaz="20" departLane="free" departSpeed="max"/>
    <trip id="1840" depart="239.05" from="A97" to="m6o" fromTaz="9" toTaz="15" departLane="free" departSpeed="max"/>
    <trip id="499" depart="240.79" from="m6i" to="m16o" fromTaz="15" toTaz="25" departLane="free" departSpeed="max"/>
    <trip id="405" depart="242.93" from="m5i" to="m15o" fromTaz="14" toTaz="24" departLane="free" departSpeed="max"/>
    <trip id="1144" depart="243.18" from="m13i" to="m16o" fromTaz="22" toTaz="25" departLane="free" departSpeed="max"/>
    <trip id="477" depart="243.94" from="m6i" to="m12o" fromTaz="15" toTaz="21" departLane="free" departSpeed="max"/>
    <trip id="1394" depart="244.22" from="m15i" to="m6o" fromTaz="24" toTaz="15" departLane="free" departSpeed="max"/>
    <trip id="761" depart="244.71" from="m10i" to="m12o" fromTaz="19" toTaz="21" departLane="free" departSpeed="max"/>
    <trip id="1022" depart="245.25" from="m13i" to="m2o" fromTaz="22" toTaz="11" departLane="free" departSpeed="max"/>
    <trip id="546" depart="245.75" from="m7i" to="m9o" fromTaz="16" toTaz="18" departLane="free" departSpeed="max"/>
    <trip id="850" depart="248.19" from="m12i" to="m2o" fromTaz="21" toTaz="11" departLane="free" departSpeed="max"/>
    <trip id="1893" depart="254.60" from="A97" to="A08" fromTaz="9" toTaz="8" departLane="free" departSpeed="max"/>
    <trip id="1906" depart="256.64" from="A97" to="A08" fromTaz="9" toTaz="8" departLane="free" departSpeed="max"/>
    <trip id="1256" depart="257.87" from="m14i" to="m9o" fromTaz="23" toTaz="18" departLane="free" departSpeed="max"/>
    <trip id="394" depart="260.97" from="m5i" to="m12o" fromTaz="14" toTaz="21" departLane="free" departSpeed="max"/>
    <trip id="525" depart="262.38" from="m7i" to="m4o" fromTaz="16" toTaz="13" departLane="free" departSpeed="max"/>
    <trip id="1444" depart="264.43" from="m15i" to="m11o" fromTaz="24" toTaz="20" departLane="free" departSpeed="max"/>
    <trip id="916" depart="265.35" from="m12i" to="m9o" fromTaz="21" toTaz="18" departLane="free" departSpeed="max"/>
    <trip id="1596" depart="266.44" from="m16i" to="m9o" fromTaz="25" toTaz="18" departLane="free" departSpeed="max"/>
    <trip id="1390" depart="269.70" from="m15i" to="m5o" fromTaz="24" toTaz="14" departLane="free" departSpeed="max"/>
    <trip id="1313" depart="271.25" from="m14i" to="m16o" fromTaz="23" toTaz="25" departLane="free" departSpeed="max"/>
    <trip id="469" depart="272.92" from="m6i" to="m10o" fromTaz="15" toTaz="19" departLane="free" departSpeed="max"/>
    <trip id="824" depart="275.22" from="m11i" to="m16o" fromTaz="20" toTaz="25" departLane="free" departSpeed="max"/>
    <trip id="333" depart="280.53" from="m4i" to="A08" fromTaz="13" toTaz="8" departLane="free" departSpeed="max"/>
    <trip id="1837" depart="283.80" from="A97" to="m5o" fromTaz="9" toTaz="14" departLane="free" departSpeed="max"/>
    <trip id="987" depart="284.35" from="m12i" to="A08" fromTaz="21" toTaz="8" departLane="free" departSpeed="max"/>
    <trip id="813" depart="284.68" from="m11i" to="m12o" fromTaz="20" toTaz="21" departLane="free" departSpeed="max"/>
    <trip id="1379" depart="287.52" from="m15i" to="m4o" fromTaz="24" toTaz="13" departLane="free" departSpeed="max"/>
    <trip id="160" depart="289.45" from="m2i" to="A08" fromTaz="11" toTaz="8" departLane="free" departSpeed="max"/>
    <trip id="1845" depart="290.88" from="A97" to="m7o" fromTaz="9" toTaz="16" departLane="free" departSpeed="max"/>
    <trip id="677" depart="291.60" from="m8i" to="A79" fromTaz="17" toTaz="9" departLane="free" departSpeed="max"/>
    <trip id="184" depart="292.21" from="m3i" to="m4o" fromTaz="12" toTaz="13" departLane="free" departSpeed="max"/>
    <trip id="802" depart="298.89" from="m11i" to="m7o" fromTaz="20" toTaz="16" departLane="free" departSpeed="max"/>
    <trip id="662" depart="301.61" from="m8i" to="m15o" fromTaz="17" toTaz="24" departLane="free" departSpeed="max"/>
    <trip id="1257" depart="301.64" from="m14i" to="m9o" fromTaz="23" toTaz="18" departLane="free" departSpeed="max"/>
    <trip id="619" depart="306.30" from="m8i" to="m5o" fromTaz="17" toTaz="14" departLane="free" departSpeed="max"/>
    <trip id="491" depart="307.23" from="m6i" to="m15o" fromTaz="15" toTaz="24" departLane="free" departSpeed="max"/>
    <trip id="1210" depart="307.36" from="m14i" to="m4o" fromTaz="23" toTaz="13" departLane="free" departSpeed="max"/>
    <trip id="412" depart="309.17" from="m5i" to="m16o" fromTaz="14" toTaz="25" departLane="free" departSpeed="max"/>
    <trip id="1121" depart="310.17" from="m13i" to="m12o" fromTaz="22" toTaz="21" departLane="free" departSpeed="max"/>
    <trip id="118" depart="311.58" from="m2i" to="m8o" fromTaz="11" toTaz="17" departLane="free" departSpeed="max"/>
    <trip id="593" depart="312.63" from="m7i" to="A79" fromTaz="16" toTaz="9" departLane="free" departSpeed="max"/>
    <trip id="1075" depart="315.66" from="m13i" to="m8o" fromTaz="22" toTaz="17" departLane="free" departSpeed="max"/>
    <trip id="1220" depart="315.96" from="m14i" to="m5o" fromTaz="23" toTaz="14" departLane="free" departSpeed="max"/>
    <trip id="1155" depart="319.74" from="m13i" to="A08" fromTaz="22" toTaz="8" departLane="free" departSpeed="max"/>
    <trip id="305" depart="320.66" from="m4i" to="m12o" fromTaz="13" toTaz="21" departLane="free" departSpeed="max"/>
    <trip id="90" depart="322.82" from="m2i" to="m3o" fromTaz="11" toTaz="12" departLane="free" departSpeed="max"/>
    <trip id="321" depart="327.86" from="m4i" to="m15o" fromTaz="13" toTaz="24" departLane="free" departSpeed="max"/>
    <trip id="1610" depart="329.10" from="m16i" to="m10o" fromTaz="25" toTaz="19" departLane="free" departSpeed="max"/>
    <trip id="1443" depart="332.06" from="m15i" to="m11o" fromTaz="24" toTaz="20" departLane="free" departSpeed="max"/>
    <trip id="554" depart="335.03" from="m7i" to="m10o" fromTaz="16" toTaz="19" departLane="free" departSpeed="max"/>
    <trip id="1940" depart="337.06" from="A97" to="A08" fromTaz="9" toTaz="8" departLane="free" departSpeed="max"/>
    <trip id="1293" depart="337.81" from="m14i" to="m13o" fromTaz="23" toTaz="22" departLane="free" departSpeed="max"/>
    <trip id="544" depart="340.80" from="m7i" to="m8o" fromTaz="16" toTaz="17" departLane="free" departSpeed="max"/>
    <trip id="524" depart="342.66" from="m7i" to="m3o" fromTaz="16" toTaz="12" departLane="free" departSpeed="max"/>
    <trip id="1505" depart="348.81" from="m15i" to="A79" fromTaz="24" toTaz="9" departLane="free" departSpeed="max"/>
    <trip id="171" depart="349.67" from="m3i" to="m1o" fromTaz="12" toTaz="10" departLane="free" departSpeed="max"/>
    <trip id="1475" depart="350.64" from="m15i" to="m14o" fromTaz="24" toTaz="23" departLane="free" departSpeed="max"/>
    <trip id="46" depart="353.09" from="m1i" to="m11o" fromTaz="10" toTaz="20" departLane="free" departSpeed="max"/>
    <trip id="1651" depart="359.12" from="m16i" to="m14o" fromTaz="25" toTaz="23" departLane="free" departSpeed="max"/>
    <trip id="700" depart="359.84" from="m9i" to="m7o" fromTaz="18" toTaz="16" departLane="free" departSpeed="max"/>
    <trip id="1922" depart="361.68" from="A97" to="A08" fromTaz="9" toTaz="8" departLane="free" departSpeed="max"/>
    <trip id="47" depart="363.29" from="m1i" to="m11o" fromTaz="10" toTaz="20" departLane="free" departSpeed="max"/>
    <trip id="473" depart="367.30" from="m6i" to="m11o" fromTaz="15" toTaz="20" departLane="free" departSpeed="max"/>
    <trip id="367" depart="368.31" from="m5i" to="m7o" fromTaz="14" toTaz="16" departLane="free" departSpeed="max"/>
    <trip id="1847" depart="373.06" from="A97" to="m7o" fromTaz="9" toTaz="16" departLane="free" departSpeed="max"/>
    <trip id="666" depart="374.70" from="m8i" to="m16o" fromTaz="17" toTaz="25" departLane="free" departSpeed="max"/>
    <trip id="540" depart="379.27" from="m7i" to="m8o" fromTaz="16" toTaz="17" departLane="free" departSpeed="max"/>
    <trip id="1685" depart="382.02" from="A80" to="m1o" fromTaz="8" toTaz="10" departLane="free" departSpeed="max"/>
    <trip id="75" depart="382.76" from="m1i" to="A08" fromTaz="10" toTaz="8" departLane="free" departSpeed="max"/>
    <trip id="1780" depart="382.95" from="A80" to="A79" fromTaz="8" toTaz="9" departLane="free" departSpeed="max"/>
    <trip id="1754" depart="386.64" from="A80" to="m15o" fromTaz="8" toTaz="24" departLane="free" departSpeed="max"/>
    <trip id="1196" depart="390.55" from="m14i" to="m3o" fromTaz="23" toTaz="12" departLane="free" departSpeed="max"/>
    <trip id="647" depart="395.23" from="m8i" to="m12o" fromTaz="17" toTaz="21" departLane="free" departSpeed="max"/>
    <trip id="418" depart="396.42" from="m5i" to="A08" fromTaz="14" toTaz="8" departLane="free" departSpeed="max"/>
    <trip id="1300" depart="397.95" from="m14i" to="m13o" fromTaz="23" toTaz="22" departLane="free" departSpeed="max"/>
    <trip id="1789" depart="399.92" from="A80" to="A79" fromTaz="8" toTaz="9" departLane="free" departSpeed="max"/>
    <trip id="1314" depart="400.25" from="m14i" to="m16o" fromTaz="23" toTaz="25" departLane="free" departSpeed="max"/>
    <trip id="57" depart="401.16" from="m1i" to="m13o" fromTaz="10" toTaz="22" departLane="free" departSpeed="max"/>
    <trip id="1045" depart="401.34" from="m13i" to="m5o" fromTaz="22" toTaz="14" departLane="free" departSpeed="max"/>
    <trip id="7" depart="401.49" from="m1i" to="m3o" fromTaz="10" toTaz="12" departLane="free" departSpeed="max"/>
    <trip id="812" depart="402.07" from="m11i" to="m12o" fromTaz="20" toTaz="21" departLane="free" departSpeed="max"/>
    <trip id="1741" depart="403.97" from="A80" to="m12o" fromTaz="8" toTaz="21" departLane="free" departSpeed="max"/>
    <trip id="1901" depart="409.09" from="A97" to="A08" fromTaz="9" toTaz="8" departLane="free" departSpeed="max"/>
    <trip id="415" depart="409.79" from="m5i" to="A08" fromTaz="14" toTaz="8" departLane="free" departSpeed="max"/>
    <trip id="1327" depart="410.22" from="m14i" to="A08" fromTaz="23" toTaz="8" departLane="free" departSpeed="max"/>
    <trip id="357" depart="411.21" from="m5i" to="m4o" fromTaz="14" toTaz="13" departLane="free" departSpeed="max"/>
    <trip id="1762" depart="413.29" from="A80" to="m16o" fromTaz="8" toTaz="25" departLane="free" departSpeed="max"/>
    <trip id="1051" depart="414.29" from="m13i" to="m5o" fromTaz="22" toTaz="14" departLane="free" departSpeed="max"/>
    <trip id="1937" depart="416.17" from="A97" to="A08" fromTaz="9" toTaz="8" departLane="free" departSpeed="max"/>
    <trip id="456" depart="416.56" from="m6i" to="m8o" fromTaz="15" toTaz="17" departLane="free" departSpeed="max"/>
    <trip id="69" depart="417.29" from="m1i" to="m15o" fromTaz="10" toTaz="24" departLane="free" departSpeed="max"/>
    <trip id="1115" depart="418.12" from="m13i" to="m12o" fromTaz="22" toTaz="21" departLane="free" departSpeed="max"/>
    <trip id="350" depart="420.02" from="m5i" to="m3o" fromTaz="14" toTaz="12" departLane="free" departSpeed="max"/>
    <trip id="297" depart="420.68" from="m4i" to="m10o" fromTaz="13" toTaz="19" departLane="free" departSpeed="max"/>
    <trip id="1557" depart="421.37" from="m16i" to="m5o" fromTaz="25" toTaz="14" departLane="free" departSpeed="max"/>
    <trip id="1151" depart="421.44" from="m13i" to="m16o" fromTaz="22" toTaz="25" departLane="free" departSpeed="max"/>
    <trip id="280" depart="422.38" from="m4i" to="m7o" fromTaz="13" toTaz="16" departLane="free" departSpeed="max"/>
    <trip id="409" depart="425.10" from="m5i" to="m15o" fromTaz="14" toTaz="24" departLane="free" departSpeed="max"/>
    <trip id="1228" depart="425.11" from="m14i" to="m6o" fromTaz="23" toTaz="15" departLane="free" departSpeed="max"/>
    <trip id="994" depart="426.20" from="m12i" to="A79" fromTaz="21" toTaz="9" departLane="free" departSpeed="max"/>
    <trip id="1422" depart="429.64" from="m15i" to="m8o" fromTaz="24" toTaz="17" departLane="free" departSpeed="max"/>
    <trip id="902" depart="430.83" from="m12i" to="m7o" fromTaz="21" toTaz="16" departLane="free" departSpeed="max"/>
    <trip id="371" depart="435.18" from="m5i" to="m8o" fromTaz="14" toTaz="17" departLane="free" departSpeed="max"/>
    <trip id="127" depart="435.93" from="m2i" to="m10o" fromTaz="11" toTaz="19" departLane="free" departSpeed="max"/>
    <trip id="24" depart="436.43" from="m1i" to="m6o" fromTaz="10" toTaz="15" departLane="free" departSpeed="max"/>
    <trip id="1892" depart="441.09" from="A97" to="m16o" fromTaz="9" toTaz="25" departLane="free" departSpeed="max"/>
    <trip id="915" depart="441.40" from="m12i" to="m9o" fromTaz="21" toTaz="18" departLane="free" departSpeed="max"/>
    <trip id="136" depart="441.97" from="m2i" to="m12o" fromTaz="11" toTaz="21" departLane="free" departSpeed="max"/>
    <trip id="1798" depart="445.13" from="A80" to="A79" fromTaz="8" toTaz="9" departLane="free" departSpeed="max"/>
    <trip id="44" depart="448.25" from="m1i" to="m10o" fromTaz="10" toTaz="19" departLane="free" departSpeed="max"/>
    <trip id="590" depart="450.59" from="m7i" to="A79" fromTaz="16" toTaz="9" departLane="free" departSpeed="max"/>
    <trip id="398" depart="452.31" from="m5i" to="m13o" fromTaz="14" toTaz="22" departLane="free" departSpeed="max"/>
    <trip id="1299" depart="454.94" from="m14i" to="m13o" fromTaz="23" toTaz="22" departLane="free" departSpeed="max"/>
    <trip id="1236" depart="455.00" from="m14i" to="m7o" fromTaz="23" toTaz="16" departLane="free" departSpeed="max"/>
    <trip id="416" depart="456.61" from="m5i" to="A08" fromTaz="14" toTaz="8" departLane="free" departSpeed="max"/>
    <trip id="1052" depart="458.37" from="m13i" to="m5o" fromTaz="22" toTaz="14" departLane="free" departSpeed="max"/>
    <trip id="363" depart="462.35" from="m5i" to="m6o" fromTaz="14" toTaz="15" departLane="free" departSpeed="max"/>
    <trip id="1871" depart="466.55" from="A97" to="m12o" fromTaz="9" toTaz="21" departLane="free" departSpeed="max"/>
    <trip id="1728" depart="467.43" from="A80" to="m10o" fromTaz="8" toTaz="19" departLane="free" departSpeed="max"/>
    <trip id="1025" depart="468.04" from="m13i" to="m3o" fromTaz="22" toTaz="12" departLane="free" departSpeed="max"/>