<?xml version="1.0" encoding="UTF-8"?>

<!-- generated on Tue Feb 27 20:27:29 2018 by SUMO duarouter Version 0.30.0
<?xml version="1.0" encoding="UTF-8"?>

<configuration xmlns:xsi="http://www.w3.org/2001/XMLSchema-instance" xsi:noNamespaceSchemaLocation="http://sumo.dlr.de/xsd/duarouterConfiguration.xsd">

    <input>
        <net-file value="quickstart.net.xml"/>
        <trip-files value="quickstart.trips.xml"/>
    </input>

    <output>
        <output-file value="quickstartod.rou.xml"/>
    </output>

</configuration>
-->

<routes xmlns:xsi="http://www.w3.org/2001/XMLSchema-instance" xsi:noNamespaceSchemaLocation="http://sumo.dlr.de/xsd/routes_file.xsd">
    <vehicle id="59" depart="0.79" departLane="free" departSpeed="max" fromTaz="10" toTaz="22">
        <route edges="m1i A01 A12 A23 A34 m13o"/>
    </vehicle>
    <vehicle id="1089" depart="1.83" departLane="free" departSpeed="max" fromTaz="22" toTaz="18">
        <route edges="m13i A43 A32 A21 A10 m9o"/>
    </vehicle>
    <vehicle id="522" depart="2.75" departLane="free" departSpeed="max" fromTaz="16" toTaz="12">
        <route edges="m7i A65 A54 A43 A32 m3o"/>
    </vehicle>
    <vehicle id="485" depart="4.77" departLane="free" departSpeed="max" fromTaz="15" toTaz="23">
        <route edges="m6i m14o"/>
    </vehicle>
    <vehicle id="295" depart="6.14" departLane="free" departSpeed="max" fromTaz="13" toTaz="19">
        <route edges="m4i A32 A21 m10o"/>
    </vehicle>
    <vehicle id="1639" depart="10.16" departLane="free" departSpeed="max" fromTaz="25" toTaz="22">
        <route edges="m16i A76 A65 A54 m13o"/>
    </vehicle>
    <vehicle id="1888" depart="11.45" departLane="free" departSpeed="max" fromTaz="9" toTaz="25">
        <route edges="A97 m16o"/>
    </vehicle>
    <vehicle id="1491" depart="14.07" departLane="free" departSpeed="max" fromTaz="24" toTaz="25">
        <route edges="m15i A67 m16o"/>
    </vehicle>
    <vehicle id="885" depart="19.77" departLane="free" departSpeed="max" fromTaz="21" toTaz="15">
        <route edges="m12i A34 A45 m6o"/>
    </vehicle>
    <vehicle id="1507" depart="21.76" departLane="free" departSpeed="max" fromTaz="24" toTaz="9">
        <route edges="m15i A67 A79"/>
    </vehicle>
    <vehicle id="1014" depart="22.28" departLane="free" departSpeed="max" fromTaz="22" toTaz="11">
        <route edges="m13i A43 A32 A21 m2o"/>
    </vehicle>
    <vehicle id="1311" depart="22.82" departLane="free" departSpeed="max" fromTaz="23" toTaz="24">
        <route edges="m14i A56 m15o"/>
    </vehicle>
    <vehicle id="365" depart="23.05" departLane="free" departSpeed="max" fromTaz="14" toTaz="16">
        <route edges="m5i A45 A56 m7o"/>
    </vehicle>
    <vehicle id="1068" depart="23.89" departLane="free" departSpeed="max" fromTaz="22" toTaz="16">
        <route edges="m13i A45 A56 m7o"/>
    </vehicle>
    <vehicle id="1342" depart="24.44" departLane="free" departSpeed="max" fromTaz="23" toTaz="9">
        <route edges="m14i A56 A67 A79"/>
    </vehicle>
    <vehicle id="585" depart="24.98" departLane="free" departSpeed="max" fromTaz="16" toTaz="8">
        <route edges="m7i A65 A54 A43 A32 A21 A10 A08"/>
    </vehicle>
    <vehicle id="1676" depart="25.86" departLane="free" departSpeed="max" fromTaz="25" toTaz="9">
        <route edges="m16i A79"/>
    </vehicle>
    <vehicle id="897" depart="29.15" departLane="free" departSpeed="max" fromTaz="21" toTaz="16">
        <route edges="m12i A34 A45 A56 m7o"/>
    </vehicle>
    <vehicle id="1872" depart="30.26" departLane="free" departSpeed="max" fromTaz="9" toTaz="21">
        <route edges="A97 A76 A65 A54 A43 m12o"/>
    </vehicle>
    <vehicle id="1301" depart="32.14" departLane="free" departSpeed="max" fromTaz="23" toTaz="22">
        <route edges="m14i A54 m13o"/>
    </vehicle>
    <vehicle id="1653" depart="35.00" departLane="free" departSpeed="max" fromTaz="25" toTaz="24">
        <route edges="m16i A76 m15o"/>
    </vehicle>
    <vehicle id="691" depart="35.70" departLane="free" departSpeed="max" fromTaz="18" toTaz="13">
        <route edges="m9i A01 A12 A23 m4o"/>
    </vehicle>
    <vehicle id="1207" depart="36.35" departLane="free" departSpeed="max" fromTaz="23" toTaz="13">
        <route edges="m14i A54 A43 m4o"/>
    </vehicle>
    <vehicle id="1739" depart="37.39" departLane="free" departSpeed="max" fromTaz="8" toTaz="21">
        <route edges="A80 A01 A12 A23 m12o"/>
    </vehicle>
    <vehicle id="808" depart="38.97" departLane="free" departSpeed="max" fromTaz="20" toTaz="18">
        <route edges="m11i A21 A10 m9o"/>
    </vehicle>
    <vehicle id="131" depart="39.03" departLane="free" departSpeed="max" fromTaz="11" toTaz="20">
        <route edges="m2i A12 m11o"/>
    </vehicle>
    <vehicle id="1163" depart="44.80" departLane="free" departSpeed="max" fromTaz="22" toTaz="9">
        <route edges="m13i A45 A56 A67 A79"/>
    </vehicle>
    <vehicle id="1330" depart="44.99" departLane="free" departSpeed="max" fromTaz="23" toTaz="8">
        <route edges="m14i A54 A43 A32 A21 A10 A08"/>
    </vehicle>
    <vehicle id="1359" depart="51.33" departLane="free" departSpeed="max" fromTaz="24" toTaz="11">
        <route edges="m15i A65 A54 A43 A32 A21 m2o"/>
    </vehicle>
    <vehicle id="1582" depart="53.94" departLane="free" departSpeed="max" fromTaz="25" toTaz="16">
        <route edges="m16i A76 m7o"/>
    </vehicle>
    <vehicle id="1842" depart="55.12" departLane="free" departSpeed="max" fromTaz="9" toTaz="15">
        <route edges="A97 A76 A65 m6o"/>
    </vehicle>
    <vehicle id="1767" depart="56.27" departLane="free" departSpeed="max" fromTaz="8" toTaz="9">
        <route edges="A80 A01 A12 A23 A34 A45 A56 A67 A79"/>
    </vehicle>
    <vehicle id="421" depart="58.23" departLane="free" departSpeed="max" fromTaz="14" toTaz="9">
        <route edges="m5i A45 A56 A67 A79"/>
    </vehicle>
    <vehicle id="977" depart="59.07" departLane="free" departSpeed="max" fromTaz="21" toTaz="25">
        <route edges="m12i A34 A45 A56 A67 m16o"/>
    </vehicle>
    <vehicle id="1587" depart="62.44" departLane="free" departSpeed="max" fromTaz="25" toTaz="17">
        <route edges="m16i m8o"/>
    </vehicle>
    <vehicle id="710" depart="63.32" departLane="free" departSpeed="max" fromTaz="18" toTaz="21">
        <route edges="m9i A01 A12 A23 m12o"/>
    </vehicle>
    <vehicle id="1766" depart="65.23" departLane="free" departSpeed="max" fromTaz="8" toTaz="9">
        <route edges="A80 A01 A12 A23 A34 A45 A56 A67 A79"/>
    </vehicle>
    <vehicle id="1467" depart="66.73" departLane="free" departSpeed="max" fromTaz="24" toTaz="22">
        <route edges="m15i A65 A54 m13o"/>
    </vehicle>
    <vehicle id="821" depart="67.30" departLane="free" departSpeed="max" fromTaz="20" toTaz="24">
        <route edges="m11i A23 A34 A45 A56 m15o"/>
    </vehicle>
    <vehicle id="385" depart="70.25" departLane="free" departSpeed="max" fromTaz="14" toTaz="20">
        <route edges="m5i A43 A32 m11o"/>
    </vehicle>
    <vehicle id="558" depart="70.72" departLane="free" departSpeed="max" fromTaz="16" toTaz="20">
        <route edges="m7i A65 A54 A43 A32 m11o"/>
    </vehicle>
    <vehicle id="1001" depart="72.86" departLane="free" departSpeed="max" fromTaz="21" toTaz="9">
        <route edges="m12i A34 A45 A56 A67 A79"/>
    </vehicle>
    <vehicle id="1396" depart="73.44" departLane="free" departSpeed="max" fromTaz="24" toTaz="15">
        <route edges="m15i A65 m6o"/>
    </vehicle>
    <vehicle id="665" depart="76.05" departLane="free" departSpeed="max" fromTaz="17" toTaz="25">
        <route edges="m8i m16o"/>
    </vehicle>
    <vehicle id="515" depart="76.76" departLane="free" departSpeed="max" fromTaz="16" toTaz="11">
        <route edges="m7i A65 A54 A43 A32 A21 m2o"/>
    </vehicle>
    <vehicle id="928" depart="76.97" departLane="free" departSpeed="max" fromTaz="21" toTaz="19">
        <route edges="m12i A32 A21 m10o"/>
    </vehicle>
    <vehicle id="390" depart="77.89" departLane="free" departSpeed="max" fromTaz="14" toTaz="21">
        <route edges="m5i A43 m12o"/>
    </vehicle>
    <vehicle id="302" depart="79.84" departLane="free" departSpeed="max" fromTaz="13" toTaz="20">
        <route edges="m4i A32 m11o"/>
    </vehicle>
    <vehicle id="178" depart="88.60" departLane="free" departSpeed="max" fromTaz="12" toTaz="11">
        <route edges="m3i A21 m2o"/>
    </vehicle>
    <vehicle id="769" depart="88.88" departLane="free" departSpeed="max" fromTaz="19" toTaz="23">
        <route edges="m10i A12 A23 A34 A45 m14o"/>
    </vehicle>
    <vehicle id="934" depart="89.14" departLane="free" departSpeed="max" fromTaz="21" toTaz="20">
        <route edges="m12i A32 m11o"/>
    </vehicle>
    <vehicle id="349" depart="90.56" departLane="free" departSpeed="max" fromTaz="14" toTaz="11">
        <route edges="m5i A43 A32 A21 m2o"/>
    </vehicle>
    <vehicle id="1606" depart="90.97" departLane="free" departSpeed="max" fromTaz="25" toTaz="19">
        <route edges="m16i A76 A65 A54 A43 A32 A21 m10o"/>
    </vehicle>
    <vehicle id="840" depart="92.51" departLane="free" departSpeed="max" fromTaz="21" toTaz="10">
        <route edges="m12i A32 A21 A10 m1o"/>
    </vehicle>
    <vehicle id="1282" depart="94.16" departLane="free" departSpeed="max" fromTaz="23" toTaz="20">
        <route edges="m14i A54 A43 A32 m11o"/>
    </vehicle>
    <vehicle id="630" depart="94.44" departLane="free" departSpeed="max" fromTaz="17" toTaz="18">
        <route edges="m8i A76 A65 A54 A43 A32 A21 A10 m9o"/>
    </vehicle>
    <vehicle id="163" depart="94.83" departLane="free" departSpeed="max" fromTaz="11" toTaz="8">
        <route edges="m2i A10 A08"/>
    </vehicle>
    <vehicle id="848" depart="95.90" departLane="free" departSpeed="max" fromTaz="21" toTaz="11">
        <route edges="m12i A32 A21 m2o"/>
    </vehicle>
    <vehicle id="943" depart="96.84" departLane="free" departSpeed="max" fromTaz="21" toTaz="22">
        <route edges="m12i A34 m13o"/>
    </vehicle>
    <vehicle id="810" depart="98.80" departLane="free" departSpeed="max" fromTaz="20" toTaz="19">
        <route edges="m11i A21 m10o"/>
    </vehicle>
    <vehicle id="1298" depart="100.27" departLane="free" departSpeed="max" fromTaz="23" toTaz="22">
        <route edges="m14i A54 m13o"/>
    </vehicle>
    <vehicle id="87" depart="100.63" departLane="free" departSpeed="max" fromTaz="11" toTaz="10">
        <route edges="m2i A10 m1o"/>
    </vehicle>
    <vehicle id="209" depart="101.43" departLane="free" departSpeed="max" fromTaz="12" toTaz="18">
        <route edges="m3i A21 A10 m9o"/>
    </vehicle>
    <vehicle id="1599" depart="101.87" departLane="free" departSpeed="max" fromTaz="25" toTaz="18">
        <route edges="m16i A76 A65 A54 A43 A32 A21 A10 m9o"/>
    </vehicle>
    <vehicle id="1805" depart="103.47" departLane="free" departSpeed="max" fromTaz="8" toTaz="9">
        <route edges="A80 A01 A12 A23 A34 A45 A56 A67 A79"/>
    </vehicle>
    <vehicle id="1539" depart="103.83" departLane="free" departSpeed="max" fromTaz="25" toTaz="12">
        <route edges="m16i A76 A65 A54 A43 A32 m3o"/>
    </vehicle>
    <vehicle id="1125" depart="104.56" departLane="free" departSpeed="max" fromTaz="22" toTaz="23">
        <route edges="m13i A45 m14o"/>
    </vehicle>
    <vehicle id="814" depart="104.65" departLane="free" departSpeed="max" fromTaz="20" toTaz="21">
        <route edges="m11i A23 m12o"/>
    </vehicle>
    <vehicle id="1661" depart="105.24" departLane="free" departSpeed="max" fromTaz="25" toTaz="24">
        <route edges="m16i A76 m15o"/>
    </vehicle>
    <vehicle id="343" depart="107.93" departLane="free" departSpeed="max" fromTaz="14" toTaz="10">
        <route edges="m5i A43 A32 A21 A10 m1o"/>
    </vehicle>
    <vehicle id="818" depart="110.09" departLane="free" departSpeed="max" fromTaz="20" toTaz="23">
        <route edges="m11i A23 A34 A45 m14o"/>
    </vehicle>
    <vehicle id="891" depart="120.35" departLane="free" departSpeed="max" fromTaz="21" toTaz="15">
        <route edges="m12i A34 A45 m6o"/>
    </vehicle>
    <vehicle id="55" depart="121.78" departLane="free" departSpeed="max" fromTaz="10" toTaz="22">
        <route edges="m1i A01 A12 A23 A34 m13o"/>
    </vehicle>
    <vehicle id="386" depart="122.68" departLane="free" departSpeed="max" fromTaz="14" toTaz="20">
        <route edges="m5i A43 A32 m11o"/>
    </vehicle>
    <vehicle id="1091" depart="123.30" departLane="free" departSpeed="max" fromTaz="22" toTaz="18">
        <route edges="m13i A43 A32 A21 A10 m9o"/>
    </vehicle>
    <vehicle id="947" depart="125.00" departLane="free" departSpeed="max" fromTaz="21" toTaz="22">
        <route edges="m12i A34 m13o"/>
    </vehicle>
    <vehicle id="1405" depart="125.20" departLane="free" departSpeed="max" fromTaz="24" toTaz="16">
        <route edges="m15i m7o"/>
    </vehicle>
    <vehicle id="1698" depart="127.90" departLane="free" departSpeed="max" fromTaz="8" toTaz="13">
        <route edges="A80 A01 A12 A23 m4o"/>
    </vehicle>
    <vehicle id="1490" depart="128.15" departLane="free" departSpeed="max" fromTaz="24" toTaz="25">
        <route edges="m15i A67 m16o"/>
    </vehicle>
    <vehicle id="413" depart="128.34" departLane="free" departSpeed="max" fromTaz="14" toTaz="25">
        <route edges="m5i A45 A56 A67 m16o"/>
    </vehicle>
    <vehicle id="1425" depart="128.61" departLane="free" departSpeed="max" fromTaz="24" toTaz="18">
        <route edges="m15i A65 A54 A43 A32 A21 A10 m9o"/>
    </vehicle>
    <vehicle id="884" depart="141.40" departLane="free" departSpeed="max" fromTaz="21" toTaz="15">
        <route edges="m12i A34 A45 m6o"/>
    </vehicle>
    <vehicle id="1486" depart="146.43" departLane="free" departSpeed="max" fromTaz="24" toTaz="25">
        <route edges="m15i A67 m16o"/>
    </vehicle>
    <vehicle id="374" depart="146.94" departLane="free" departSpeed="max" fromTaz="14" toTaz="17">
        <route edges="m5i A45 A56 A67 m8o"/>
    </vehicle>
    <vehicle id="542" depart="149.02" departLane="free" departSpeed="max" fromTaz="16" toTaz="17">
        <route edges="m7i A67 m8o"/>
    </vehicle>
    <vehicle id="298" depart="150.40" departLane="free" departSpeed="max" fromTaz="13" toTaz="19">
        <route edges="m4i A32 A21 m10o"/>
    </vehicle>
    <vehicle id="528" depart="153.62" departLane="free" departSpeed="max" fromTaz="16" toTaz="13">
        <route edges="m7i A65 A54 A43 m4o"/>
    </vehicle>
    <vehicle id="1460" depart="154.88" departLane="free" departSpeed="max" fromTaz="24" toTaz="21">
        <route edges="m15i A65 A54 A43 m12o"/>
    </vehicle>
    <vehicle id="1329" depart="158.23" departLane="free" departSpeed="max" fromTaz="23" toTaz="8">
        <route edges="m14i A54 A43 A32 A21 A10 A08"/>
    </vehicle>
    <vehicle id="1757" depart="159.39" departLane="free" departSpeed="max" fromTaz="8" toTaz="24">
        <route edges="A80 A01 A12 A23 A34 A45 A56 m15o"/>
    </vehicle>
    <vehicle id="926" depart="161.60" departLane="free" departSpeed="max" fromTaz="21" toTaz="19">
        <route edges="m12i A32 A21 m10o"/>
    </vehicle>
    <vehicle id="17" depart="163.02" departLane="free" departSpeed="max" fromTaz="10" toTaz="14">
        <route edges="m1i A01 A12 A23 A34 m5o"/>
    </vehicle>
    <vehicle id="210" depart="170.05" departLane="free" departSpeed="max" fromTaz="12" toTaz="19">
        <route edges="m3i A21 m10o"/>
    </vehicle>
    <vehicle id="379" depart="171.44" departLane="free" departSpeed="max" fromTaz="14" toTaz="18">
        <route edges="m5i A43 A32 A21 A10 m9o"/>
    </vehicle>
    <vehicle id="979" depart="179.28" departLane="free" departSpeed="max" fromTaz="21" toTaz="25">
        <route edges="m12i A34 A45 A56 A67 m16o"/>
    </vehicle>
    <vehicle id="1547" depart="181.97" departLane="free" departSpeed="max" fromTaz="25" toTaz="13">
        <route edges="m16i A76 A65 A54 A43 m4o"/>
    </vehicle>
    <vehicle id="428" depart="182.42" departLane="free" departSpeed="max" fromTaz="15" toTaz="10">
        <route edges="m6i A54 A43 A32 A21 A10 m1o"/>
    </vehicle>
    <vehicle id="1804" depart="183.21" departLane="free" departSpeed="max" fromTaz="8" toTaz="9">
        <route edges="A80 A01 A12 A23 A34 A45 A56 A67 A79"/>
    </vehicle>
    <vehicle id="950" depart="185.27" departLane="free" departSpeed="max" fromTaz="21" toTaz="22">
        <route edges="m12i A34 m13o"/>
    </vehicle>
    <vehicle id="1035" depart="186.49" departLane="free" departSpeed="max" fromTaz="22" toTaz="13">
        <route edges="m13i A43 m4o"/>
    </vehicle>
    <vehicle id="353" depart="187.53" departLane="free" departSpeed="max" fromTaz="14" toTaz="12">
        <route edges="m5i A43 A32 m3o"/>
    </vehicle>
    <vehicle id="1034" depart="187.95" departLane="free" departSpeed="max" fromTaz="22" toTaz="13">
        <route edges="m13i A43 m4o"/>
    </vehicle>
    <vehicle id="43" depart="188.13" departLane="free" departSpeed="max" fromTaz="10" toTaz="19">
        <route edges="m1i A01 m10o"/>
    </vehicle>
    <vehicle id="261" depart="188.21" departLane="free" departSpeed="max" fromTaz="13" toTaz="11">
        <route edges="m4i A32 A21 m2o"/>
    </vehicle>
    <vehicle id="325" depart="189.34" departLane="free" departSpeed="max" fromTaz="13" toTaz="25">
        <route edges="m4i A34 A45 A56 A67 m16o"/>
    </vehicle>
    <vehicle id="1723" depart="193.05" departLane="free" departSpeed="max" fromTaz="8" toTaz="18">
        <route edges="A80 m9o"/>
    </vehicle>
    <vehicle id="98" depart="196.41" departLane="free" departSpeed="max" fromTaz="11" toTaz="13">
        <route edges="m2i A12 A23 m4o"/>
    </vehicle>
    <vehicle id="1225" depart="200.03" departLane="free" departSpeed="max" fromTaz="23" toTaz="15">
        <route edges="m14i m6o"/>
    </vehicle>
    <vehicle id="452" depart="201.49" departLane="free" departSpeed="max" fromTaz="15" toTaz="16">
        <route edges="m6i A56 m7o"/>
    </vehicle>
    <vehicle id="1831" depart="204.31" departLane="free" departSpeed="max" fromTaz="9" toTaz="13">
        <route edges="A97 A76 A65 A54 A43 m4o"/>
    </vehicle>
    <vehicle id="1463" depart="204.83" departLane="free" departSpeed="max" fromTaz="24" toTaz="22">
        <route edges="m15i A65 A54 m13o"/>
    </vehicle>
    <vehicle id="58" depart="207.72" departLane="free" departSpeed="max" fromTaz="10" toTaz="22">
        <route edges="m1i A01 A12 A23 A34 m13o"/>
    </vehicle>
    <vehicle id="154" depart="211.05" departLane="free" departSpeed="max" fromTaz="11" toTaz="24">
        <route edges="m2i A12 A23 A34 A45 A56 m15o"/>
    </vehicle>
    <vehicle id="1470" depart="211.66" departLane="free" departSpeed="max" fromTaz="24" toTaz="22">
        <route edges="m15i A65 A54 m13o"/>
    </vehicle>
    <vehicle id="1499" depart="217.22" departLane="free" departSpeed="max" fromTaz="24" toTaz="8">
        <route edges="m15i A65 A54 A43 A32 A21 A10 A08"/>
    </vehicle>
    <vehicle id="509" depart="217.98" departLane="free" departSpeed="max" fromTaz="15" toTaz="9">
        <route edges="m6i A56 A67 A79"/>
    </vehicle>
    <vehicle id="851" depart="218.23" departLane="free" departSpeed="max" fromTaz="21" toTaz="11">
        <route edges="m12i A32 A21 m2o"/>
    </vehicle>
    <vehicle id="1136" depart="219.03" departLane="free" departSpeed="max" fromTaz="22" toTaz="24">
        <route edges="m13i A45 A56 m15o"/>
    </vehicle>
    <vehicle id="382" depart="220.65" departLane="free" departSpeed="max" fromTaz="14" toTaz="19">
        <route edges="m5i A43 A32 A21 m10o"/>
    </vehicle>
    <vehicle id="246" depart="222.36" departLane="free" departSpeed="max" fromTaz="12" toTaz="8">
        <route edges="m3i A21 A10 A08"/>
    </vehicle>
    <vehicle id="423" depart="222.41" departLane="free" departSpeed="max" fromTaz="14" toTaz="9">
        <route edges="m5i A45 A56 A67 A79"/>
    </vehicle>
    <vehicle id="1473" depart="223.52" departLane="free" departSpeed="max" fromTaz="24" toTaz="23">
        <route edges="m15i A65 m14o"/>
    </vehicle>
    <vehicle id="1662" depart="223.59" departLane="free" departSpeed="max" fromTaz="25" toTaz="24">
        <route edges="m16i A76 m15o"/>
    </vehicle>
    <vehicle id="1593" depart="224.98" departLane="free" departSpeed="max" fromTaz="25" toTaz="18">
        <route edges="m16i A76 A65 A54 A43 A32 A21 A10 m9o"/>
    </vehicle>
    <vehicle id="1646" depart="227.42" departLane="free" departSpeed="max" fromTaz="25" toTaz="23">
        <route edges="m16i A76 A65 m14o"/>
    </vehicle>
    <vehicle id="1024" depart="232.39" departLane="free" departSpeed="max" fromTaz="22" toTaz="12">
        <route edges="m13i A43 A32 m3o"/>
    </vehicle>
    <vehicle id="876" depart="236.20" departLane="free" departSpeed="max" fromTaz="21" toTaz="14">
        <route edges="m12i A34 m5o"/>
    </vehicle>
    <vehicle id="1865" depart="237.93" departLane="free" departSpeed="max" fromTaz="9" toTaz="20">
        <route edges="A97 A76 A65 A54 A43 A32 m11o"/>
    </vehicle>
    <vehicle id="1840" depart="239.05" departLane="free" departSpeed="max" fromTaz="9" toTaz="15">
        <route edges="A97 A76 A65 m6o"/>
    </vehicle>
    <vehicle id="499" depart="240.79" departLane="free" departSpeed="max" fromTaz="15" toTaz="25">
        <route edges="m6i A56 A67 m16o"/>
    </vehicle>
    <vehicle id="405" depart="242.93" departLane="free" departSpeed="max" fromTaz="14" toTaz="24">
        <route edges="m5i A45 A56 m15o"/>
    </vehicle>
    <vehicle id="1144" depart="243.18" departLane="free" departSpeed="max" fromTaz="22" toTaz="25">
        <route edges="m13i A45 A56 A67 m16o"/>
    </vehicle>
    <vehicle id="477" depart="243.94" departLane="free" departSpeed="max" fromTaz="15" toTaz="21">
        <route edges="m6i A54 A43 m12o"/>
    </vehicle>
    <vehicle id="1394" depart="244.22" departLane="free" departSpeed="max" fromTaz="24" toTaz="15">
        <route edges="m15i A65 m6o"/>
    </vehicle>
    <vehicle id="761" depart="244.71" departLane="free" departSpeed="max" fromTaz="19" toTaz="21">
        <route edges="m10i A12 A23 m12o"/>
    </vehicle>
    <vehicle id="1022" depart="245.25" departLane="free" departSpeed="max" fromTaz="22" toTaz="11">
        <route edges="m13i A43 A32 A21 m2o"/>
    </vehicle>
    <vehicle id="546" depart="245.75" departLane="free" departSpeed="max" fromTaz="16" toTaz="18">
        <route edges="m7i A65 A54 A43 A32 A21 A10 m9o"/>
    </vehicle>
    <vehicle id="850" depart="248.19" departLane="free" departSpeed="max" fromTaz="21" toTaz="11">
        <route edges="m12i A32 A21 m2o"/>
    </vehicle>
    <vehicle id="1893" depart="254.60" departLane="free" departSpeed="max" fromTaz="9" toTaz="8">
        <route edges="A97 A76 A65 A54 A43 A32 A21 A10 A08"/>
    </vehicle>
    <vehicle id="1906" depart="256.64" departLane="free" departSpeed="max" fromTaz="9" toTaz="8">
        <route edges="A97 A76 A65 A54 A43 A32 A21 A10 A08"/>
    </vehicle>
    <vehicle id="1256" depart="257.87" departLane="free" departSpeed="max" fromTaz="23" toTaz="18">
        <route edges="m14i A54 A43 A32 A21 A10 m9o"/>
    </vehicle>
    <vehicle id="394" depart="260.97" departLane="free" departSpeed="max" fromTaz="14" toTaz="21">
        <route edges="m5i A43 m12o"/>
    </vehicle>
    <vehicle id="525" depart="262.38" departLane="free" departSpeed="max" fromTaz="16" toTaz="13">
        <route edges="m7i A65 A54 A43 m4o"/>
    </vehicle>
    <vehicle id="1444" depart="264.43" departLane="free" departSpeed="max" fromTaz="24" toTaz="20">
        <route edges="m15i A65 A54 A43 A32 m11o"/>
    </vehicle>
    <vehicle id="916" depart="265.35" departLane="free" departSpeed="max" fromTaz="21" toTaz="18">
        <route edges="m12i A32 A21 A10 m9o"/>
    </vehicle>
    <vehicle id="1596" depart="266.44" departLane="free" departSpeed="max" fromTaz="25" toTaz="18">
        <route edges="m16i A76 A65 A54 A43 A32 A21 A10 m9o"/>
    </vehicle>
    <vehicle id="1390" depart="269.70" departLane="free" departSpeed="max" fromTaz="24" toTaz="14">
        <route edges="m15i A65 A54 m5o"/>
    </vehicle>
    <vehicle id="1313" depart="271.25" departLane="free" departSpeed="max" fromTaz="23" toTaz="25">
        <route edges="m14i A56 A67 m16o"/>
    </vehicle>
    <vehicle id="469" depart="272.92" departLane="free" departSpeed="max" fromTaz="15" toTaz="19">
        <route edges="m6i A54 A43 A32 A21 m10o"/>
    </vehicle>
    <vehicle id="824" depart="275.22" departLane="free" departSpeed="max" fromTaz="20" toTaz="25">
        <route edges="m11i A23 A34 A45 A56 A67 m16o"/>
    </vehicle>
    <vehicle id="333" depart="280.53" departLane="free" departSpeed="max" fromTaz="13" toTaz="8">
        <route edges="m4i A32 A21 A10 A08"/>
    </vehicle>
    <vehicle id="1837" depart="283.80" departLane="free" departSpeed="max" fromTaz="9" toTaz="14">
        <route edges="A97 A76 A65 A54 m5o"/>
    </vehicle>
    <vehicle id="987" depart="284.35" departLane="free" departSpeed="max" fromTaz="21" toTaz="8">
        <route edges="m12i A32 A21 A10 A08"/>
    </vehicle>
    <vehicle id="813" depart="284.68" departLane="free" departSpeed="max" fromTaz="20" toTaz="21">
        <route edges="m11i A23 m12o"/>
    </vehicle>
    <vehicle id="1379" depart="287.52" departLane="free" departSpeed="max" fromTaz="24" toTaz="13">
        <route edges="m15i A65 A54 A43 m4o"/>
    </vehicle>
    <vehicle id="160" depart="289.45" departLane="free" departSpeed="max" fromTaz="11" toTaz="8">
        <route edges="m2i A10 A08"/>
    </vehicle>
    <vehicle id="1845" depart="290.88" departLane="free" departSpeed="max" fromTaz="9" toTaz="16">
        <route edges="A97 A76 m7o"/>
    </vehicle>
    <vehicle id="677" depart="291.60" departLane="free" departSpeed="max" fromTaz="17" toTaz="9">
        <route edges="m8i A79"/>
    </vehicle>
    <vehicle id="184" depart="292.21" departLane="free" departSpeed="max" fromTaz="12" toTaz="13">
        <route edges="m3i A23 m4o"/>
    </vehicle>
    <vehicle id="802" depart="298.89" departLane="free" departSpeed="max" fromTaz="20" toTaz="16">
        <route edges="m11i A23 A34 A45 A56 m7o"/>
    </vehicle>
    <vehicle id="662" depart="301.61" departLane="free" departSpeed="max" fromTaz="17" toTaz="24">
        <route edges="m8i A76 m15o"/>
    </vehicle>
    <vehicle id="1257" depart="301.64" departLane="free" departSpeed="max" fromTaz="23" toTaz="18">
        <route edges="m14i A54 A43 A32 A21 A10 m9o"/>
    </vehicle>
    <vehicle id="619" depart="306.30" departLane="free" departSpeed="max" fromTaz="17" toTaz="14">
        <route edges="m8i A76 A65 A54 m5o"/>
    </vehicle>
    <vehicle id="491" depart="307.23" departLane="free" departSpeed="max" fromTaz="15" toTaz="24">
        <route edges="m6i A56 m15o"/>
    </vehicle>
    <vehicle id="1210" depart="307.36" departLane="free" departSpeed="max" fromTaz="23" toTaz="13">
        <route edges="m14i A54 A43 m4o"/>
    </vehicle>
    <vehicle id="412" depart="309.17" departLane="free" departSpeed="max" fromTaz="14" toTaz="25">
        <route edges="m5i A45 A56 A67 m16o"/>
    </vehicle>
    <vehicle id="1121" depart="310.17" departLane="free" departSpeed="max" fromTaz="22" toTaz="21">
        <route edges="m13i A43 m12o"/>
    </vehicle>
    <vehicle id="118" depart="311.58" departLane="free" departSpeed="max" fromTaz="11" toTaz="17">
        <route edges="m2i A12 A23 A34 A45 A56 A67 m8o"/>
    </vehicle>
    <vehicle id="593" depart="312.63" departLane="free" departSpeed="max" fromTaz="16" toTaz="9">
        <route edges="m7i A67 A79"/>
    </vehicle>
    <vehicle id="1075" depart="315.66" departLane="free" departSpeed="max" fromTaz="22" toTaz="17">
        <route edges="m13i A45 A56 A67 m8o"/>
    </vehicle>
    <vehicle id="1220" depart="315.96" departLane="free" departSpeed="max" fromTaz="23" toTaz="14">
        <route edges="m14i A54 m5o"/>
    </vehicle>
    <vehicle id="1155" depart="319.74" departLane="free" departSpeed="max" fromTaz="22" toTaz="8">
        <route edges="m13i A43 A32 A21 A10 A08"/>
    </vehicle>
    <vehicle id="305" depart="320.66" departLane="free" departSpeed="max" fromTaz="13" toTaz="21">
        <route edges="m4i m12o"/>
    </vehicle>
    <vehicle id="90" depart="322.82" departLane="free" departSpeed="max" fromTaz="11" toTaz="12">
        <route edges="m2i A12 m3o"/>
    </vehicle>
    <vehicle id="321" depart="327.86" departLane="free" departSpeed="max" fromTaz="13" toTaz="24">
        <route edges="m4i A34 A45 A56 m15o"/>
    </vehicle>
    <vehicle id="1610" depart="329.10" departLane="free" departSpeed="max" fromTaz="25" toTaz="19">
        <route edges="m16i A76 A65 A54 A43 A32 A21 m10o"/>
    </vehicle>
    <vehicle id="1443" depart="332.06" departLane="free" departSpeed="max" fromTaz="24" toTaz="20">
        <route edges="m15i A65 A54 A43 A32 m11o"/>
    </vehicle>
    <vehicle id="554" depart="335.03" departLane="free" departSpeed="max" fromTaz="16" toTaz="19">
        <route edges="m7i A65 A54 A43 A32 A21 m10o"/>
    </vehicle>
    <vehicle id="1940" depart="337.06" departLane="free" departSpeed="max" fromTaz="9" toTaz="8">
        <route edges="A97 A76 A65 A54 A43 A32 A21 A10 A08"/>
    </vehicle>
    <vehicle id="1293" depart="337.81" departLane="free" departSpeed="max" fromTaz="23" toTaz="22">
        <route edges="m14i A54 m13o"/>
    </vehicle>
    <vehicle id="544" depart="340.80" departLane="free" departSpeed="max" fromTaz="16" toTaz="17">
        <route edges="m7i A67 m8o"/>
    </vehicle>
    <vehicle id="524" depart="342.66" departLane="free" departSpeed="max" fromTaz="16" toTaz="12">
        <route edges="m7i A65 A54 A43 A32 m3o"/>
    </vehicle>
    <vehicle id="1505" depart="348.81" departLane="free" departSpeed="max" fromTaz="24" toTaz="9">
        <route edges="m15i A67 A79"/>
    </vehicle>
    <vehicle id="171" depart="349.67" departLane="free" departSpeed="max" fromTaz="12" toTaz="10">
        <route edges="m3i A21 A10 m1o"/>
    </vehicle>
    <vehicle id="1475" depart="350.64" departLane="free" departSpeed="max" fromTaz="24" toTaz="23">