<?xml version="1.0" encoding="UTF-8"?>
<nodes xmlns:xsi="http://www.w3.org/2001/XMLSchema-instance" xsi:noNamespaceSchemaLocation="http://sumo.dlr.de/xsd/nodes_file.xsd">

   <node id="0" x="-600.0" y="0.0"  type="traffic_light_right_on_red"/>
   <node id="1" x="-400.0" y="0.0"  type="traffic_light_right_on_red"/>
   <node id="2" x="-200.0" y="0.0"  type="traffic_light_right_on_red"/>
   <node id="3" x="0.0" y="0.0"  type="traffic_light_right_on_red"/>
   <node id="4" x="200.0" y="0.0"  type="traffic_light_right_on_red"/>
   <node id="5" x="400.0" y="0.0"  type="traffic_light_right_on_red"/>
   <node id="6" x="600.0" y="0.0"  type="traffic_light_right_on_red"/>
   <node id="7" x="800.0" y="0.0"  type="traffic_light_right_on_red"/>

   <node id="8" x="-1000.0" y="0.0"  type="priority"/>
   <node id="9" x="1000.0" y="0.0"  type="priority"/>

   <node id="10" x="-600.0" y="200.0"  type="priority"/>
   <node id="11" x="-400.0" y="200.0"  type="priority"/>
   <node id="12" x="-200.0" y="200.0"  type="priority"/>
   <node id="13" x="0.0" y="200.0"  type="priority"/>
   <node id="14" x="200.0" y="200.0"  type="priority"/>
   <node id="15" x="400.0" y="200.0"  type="priority"/>
   <node id="16" x="600.0" y="200.0"  type="priority"/>
   <node id="17" x="800.0" y="200.0"  type="priority"/>
   <node id="18" x="-600.0" y="-200.0"  type="priority"/>
   <node id="19" x="-400.0" y="-200.0"  type="priority"/>
   <node id="20" x="-200.0" y="-200.0"  type="priority"/>
   <node id="21" x="0.0" y="-200.0"  type="priority"/>
   <node id="22" x="200.0" y="-200.0"  type="priority"/>
   <node id="23" x="400.0" y="-200.0"  type="priority"/>
   <node id="24" x="600.0" y="-200.0"  type="priority"/>
   <node id="25" x="800.0" y="-200.0"  type="priority"/>




</nodes>