<?xml version="1.0" encoding="UTF-8"?>
<types>
   <type id="a" priority="3" numLanes="3" speed="17.8816"/>
   <type id="b" priority="1" numLanes="2" speed="11.176"/>
</types>
